/*--------------------------------*- C++ -*----------------------------------*\
| =========                 |                                                 |
| \\      /  F ield         | OpenFOAM: The Open Source CFD Toolbox           |
|  \\    /   O peration     | Version:  1.5                                   |
|   \\  /    A nd           | Web:      http://www.OpenFOAM.org               |
|    \\/     M anipulation  |                                                 |
\*---------------------------------------------------------------------------*/
FoamFile {
  version     2.0;
  format      ascii;
  class       dictionary;
  object      fvSolution;
}
// * * * * * * * * * * * * * * * * * * * * * * * * * * * * * * * * * * * * * //

solvers {
  Ta
  {
    solver 	     PCG;
    preconditioner   DIC;
    tolerance        1e-06;
    relTol           0;
  };

  p
  {
    solver           PCG; // symmetric matrix solver
    preconditioner   DIC;
    tolerance        1e-07;
    relTol           0;
  };

  Xsii
  {
    solver           PCG; // symmetric matrix solver
    preconditioner   DIC;
    tolerance        1e-10;
    relTol           1e-06;
  };
}

SIMPLE {
  nNonOrthogonalCorrectors 0;
}

// ************************************************************************* //
