/*--------------------------------*- C++ -*----------------------------------*\
| =========                 |                                                 |
| \\      /  F ield         | OpenFOAM: The Open Source CFD Toolbox           |
|  \\    /   O peration     | Version:  2.3.1                                 |
|   \\  /    A nd           | Web:      www.OpenFOAM.org                      |
|    \\/     M anipulation  |                                                 |
\*---------------------------------------------------------------------------*/
FoamFile {
  version     2.0;
  format      ascii;
  class       featureEdgeMesh;
  location    "constant/triSurface";
  object      hotFlow.eMesh;
}
// * * * * * * * * * * * * * * * * * * * * * * * * * * * * * * * * * * * * * //


// points:

266
(
    (-3 -2 -2)
    (-3 -2 2)
    (-3 2 2)
    (-3 2 -2)
    (-0.09891772 0.01467295 -2)
    (-0.09951854 0.009801601 -2)
    (5 2 -2)
    (5 -2 -2)
    (0 -0.09999999 -2)
    (1.788139e-07 -0.1 -2)
    (-0.09807849 0.01950895 -2)
    (0.004906952 -0.09987954 -2)
    (0.009801865 -0.09951846 -2)
    (-0.0970031 0.02429795 -2)
    (-0.09569407 0.02902841 -2)
    (0.01467317 -0.09891763 -2)
    (0.0195092 -0.0980785 -2)
    (-0.09415448 0.03368894 -2)
    (-0.09238791 0.03826832 -2)
    (0.02429813 -0.09700309 -2)
    (0.02902859 -0.095694 -2)
    (-0.09039891 0.0427555 -2)
    (-0.08819211 0.04713967 -2)
    (0.03368908 -0.09415437 -2)
    (0.03826845 -0.09238791 -2)
    (-0.08577287 0.05141028 -2)
    (-0.08314693 0.05555704 -2)
    (0.0427556 -0.09039889 -2)
    (0.04713976 -0.08819209 -2)
    (-0.08032072 0.05956996 -2)
    (-0.07730103 0.06343937 -2)
    (0.05141032 -0.08577283 -2)
    (0.05555707 -0.08314692 -2)
    (-0.07409501 0.06715595 -2)
    (-0.07071066 0.07071074 -2)
    (0.05956995 -0.08032072 -2)
    (0.06343937 -0.07730102 -2)
    (-0.06715584 0.07409518 -2)
    (-0.06343925 0.07730111 -2)
    (0.0671559 -0.07409509 -2)
    (0.07071072 -0.07071066 -2)
    (-0.05956984 0.08032083 -2)
    (-0.05555689 0.08314704 -2)
    (0.07409513 -0.06715589 -2)
    (0.07730103 -0.06343933 -2)
    (-0.0514102 0.08577294 -2)
    (-0.04713953 0.08819221 -2)
    (0.08032078 -0.05956994 -2)
    (0.08314693 -0.05555704 -2)
    (-0.04275537 0.090399 -2)
    (-0.03826821 0.09238803 -2)
    (0.08577287 -0.0514103 -2)
    (0.08819211 -0.0471397 -2)
    (-0.03368878 0.09415448 -2)
    (-0.0290283 0.09569409 -2)
    (0.09039891 -0.04275555 -2)
    (0.09238791 -0.0382684 -2)
    (-0.02429783 0.09700318 -2)
    (-0.01950884 0.09807858 -2)
    (0.09415436 -0.03368904 -2)
    (0.09569401 -0.02902852 -2)
    (-0.01467276 0.09891769 -2)
    (-0.009801388 0.0995185 -2)
    (0.0970031 -0.02429807 -2)
    (0.09807849 -0.01950908 -2)
    (-0.004906535 0.09987956 -2)
    (0 0.1 -2)
    (0.09891766 -0.01467309 -2)
    (0.09951848 -0.009801758 -2)
    (0.004906774 0.09987955 -2)
    (0.009801686 0.09951847 -2)
    (0.09987956 -0.004906809 -2)
    (0.1 -4.013393e-08 -2)
    (0.01467305 0.09891766 -2)
    (0.01950902 0.09807853 -2)
    (0.09987956 0.004906729 -2)
    (0.09951848 0.009801678 -2)
    (0.02429801 0.09700312 -2)
    (0.02902848 0.09569404 -2)
    (0.09891766 0.01467301 -2)
    (0.09807855 0.019509 -2)
    (0.03368896 0.09415441 -2)
    (0.03826833 0.09238796 -2)
    (0.0970031 0.02429799 -2)
    (0.09569407 0.02902844 -2)
    (0.04275548 0.09039893 -2)
    (0.09415442 0.03368896 -2)
    (0.09238797 0.03826832 -2)
    (0.04713964 0.08819213 -2)
    (0.05141026 0.08577286 -2)
    (0.09039891 0.04275549 -2)
    (0.08819211 0.04713966 -2)
    (0.05555701 0.08314696 -2)
    (0.05956995 0.08032075 -2)
    (0.08577287 0.05141026 -2)
    (0.08314699 0.05555701 -2)
    (0.06343931 0.07730105 -2)
    (0.0671559 0.07409511 -2)
    (0.08032078 0.05956992 -2)
    (0.07730103 0.06343932 -2)
    (0.07071066 0.07071067 -2)
    (0.07409513 0.06715589 -2)
    (5 -2 2)
    (-0.1 -1.418587e-07 2)
    (-0.0998795 0.00490664 2)
    (0 -0.09999999 2)
    (-0.004906535 -0.09987956 2)
    (-0.009801507 -0.09951849 2)
    (-0.0998795 -0.004906923 2)
    (-0.01467288 -0.09891769 2)
    (-0.01950884 -0.09807857 2)
    (-0.09951842 -0.009801883 2)
    (-0.0989176 -0.01467323 2)
    (-0.02429783 -0.09700318 2)
    (-0.02902818 -0.0956941 2)
    (-0.09807849 -0.01950923 2)
    (-0.0970031 -0.02429822 2)
    (-0.03368878 -0.09415449 2)
    (-0.03826809 -0.09238806 2)
    (-0.09569395 -0.02902868 2)
    (-0.09415436 -0.03368921 2)
    (-0.04275525 -0.09039905 2)
    (-0.04713941 -0.08819226 2)
    (-0.09238791 -0.03826858 2)
    (-0.09039879 -0.04275575 2)
    (-0.05141008 -0.08577301 2)
    (-0.05555677 -0.08314713 2)
    (-0.08819199 -0.04713992 2)
    (-0.08577275 -0.05141053 2)
    (-0.05956972 -0.08032094 2)
    (-0.06343913 -0.07730126 2)
    (-0.08314681 -0.05555728 2)
    (-0.0803206 -0.05957019 2)
    (-0.0671556 -0.07409533 2)
    (-0.07071042 -0.07071092 2)
    (-0.07730079 -0.06343959 2)
    (-0.07409489 -0.06715616 2)
    (5 2 2)
    (-0.08314693 0.05555704 2)
    (-0.08577287 0.05141028 2)
    (-0.08819211 0.04713967 2)
    (-0.09039891 0.0427555 2)
    (-0.09238791 0.03826832 2)
    (-0.09415448 0.03368894 2)
    (-0.09569407 0.02902841 2)
    (-0.0970031 0.02429795 2)
    (-0.09807849 0.01950895 2)
    (-0.09891772 0.01467295 2)
    (-0.09951854 0.009801601 2)
    (-0.004906535 -0.09987956 -2)
    (-0.0998795 0.00490664 -2)
    (-0.1 -1.418587e-07 -2)
    (-0.009801507 -0.09951849 -2)
    (-0.01467288 -0.09891769 -2)
    (-0.0998795 -0.004906923 -2)
    (-0.09951842 -0.009801883 -2)
    (-0.01950884 -0.09807857 -2)
    (-0.02429783 -0.09700318 -2)
    (-0.0989176 -0.01467323 -2)
    (-0.09807849 -0.01950923 -2)
    (-0.02902818 -0.0956941 -2)
    (-0.03368878 -0.09415449 -2)
    (-0.0970031 -0.02429822 -2)
    (-0.09569395 -0.02902868 -2)
    (-0.03826809 -0.09238806 -2)
    (-0.04275525 -0.09039905 -2)
    (-0.09415436 -0.03368921 -2)
    (-0.09238791 -0.03826858 -2)
    (-0.04713941 -0.08819226 -2)
    (-0.05141008 -0.08577301 -2)
    (-0.09039879 -0.04275575 -2)
    (-0.08819199 -0.04713992 -2)
    (-0.05555677 -0.08314713 -2)
    (-0.05956972 -0.08032094 -2)
    (-0.08577275 -0.05141053 -2)
    (-0.08314681 -0.05555728 -2)
    (-0.06343913 -0.07730126 -2)
    (-0.0671556 -0.07409533 -2)
    (-0.0803206 -0.05957019 -2)
    (-0.07730079 -0.06343959 -2)
    (-0.07071042 -0.07071092 -2)
    (-0.07409489 -0.06715616 -2)
    (0 0.1 2)
    (-0.004906535 0.09987956 2)
    (-0.009801388 0.0995185 2)
    (-0.01467276 0.09891769 2)
    (-0.01950884 0.09807858 2)
    (-0.02429783 0.09700318 2)
    (-0.0290283 0.09569409 2)
    (-0.03368878 0.09415448 2)
    (-0.03826821 0.09238803 2)
    (-0.04275537 0.090399 2)
    (-0.04713953 0.08819221 2)
    (-0.0514102 0.08577294 2)
    (-0.05555689 0.08314704 2)
    (-0.05956984 0.08032083 2)
    (-0.06343925 0.07730111 2)
    (-0.06715584 0.07409518 2)
    (-0.07071066 0.07071074 2)
    (-0.07409501 0.06715595 2)
    (-0.07730103 0.06343937 2)
    (-0.08032072 0.05956996 2)
    (1.788139e-07 -0.1 2)
    (0.004906952 -0.09987954 2)
    (0.009801865 -0.09951846 2)
    (0.01467317 -0.09891763 2)
    (0.0195092 -0.0980785 2)
    (0.02429813 -0.09700309 2)
    (0.02902859 -0.095694 2)
    (0.03368908 -0.09415437 2)
    (0.03826845 -0.09238791 2)
    (0.0427556 -0.09039889 2)
    (0.04713976 -0.08819209 2)
    (0.05141032 -0.08577283 2)
    (0.05555707 -0.08314692 2)
    (0.05956995 -0.08032072 2)
    (0.06343937 -0.07730102 2)
    (0.0671559 -0.07409509 2)
    (0.07071072 -0.07071066 2)
    (0.07409513 -0.06715589 2)
    (0.07730103 -0.06343933 2)
    (0.08032078 -0.05956994 2)
    (0.08314693 -0.05555704 2)
    (0.08577287 -0.0514103 2)
    (0.08819211 -0.0471397 2)
    (0.09039891 -0.04275555 2)
    (0.09238791 -0.0382684 2)
    (0.09415436 -0.03368904 2)
    (0.09569401 -0.02902852 2)
    (0.0970031 -0.02429807 2)
    (0.09807849 -0.01950908 2)
    (0.09891766 -0.01467309 2)
    (0.09951848 -0.009801758 2)
    (0.09987956 -0.004906809 2)
    (0.004906774 0.09987955 2)
    (0.009801686 0.09951847 2)
    (0.1 -4.013393e-08 2)
    (0.09987956 0.004906729 2)
    (0.01467305 0.09891766 2)
    (0.01950902 0.09807853 2)
    (0.09951848 0.009801678 2)
    (0.09891766 0.01467301 2)
    (0.02429801 0.09700312 2)
    (0.02902848 0.09569404 2)
    (0.09807855 0.019509 2)
    (0.0970031 0.02429799 2)
    (0.03368896 0.09415441 2)
    (0.03826833 0.09238796 2)
    (0.09569407 0.02902844 2)
    (0.09415442 0.03368896 2)
    (0.04275548 0.09039893 2)
    (0.04713964 0.08819213 2)
    (0.09238797 0.03826832 2)
    (0.09039891 0.04275549 2)
    (0.05141026 0.08577286 2)
    (0.05555701 0.08314696 2)
    (0.08819211 0.04713966 2)
    (0.08577287 0.05141026 2)
    (0.05956995 0.08032075 2)
    (0.06343931 0.07730105 2)
    (0.08314699 0.05555701 2)
    (0.08032078 0.05956992 2)
    (0.0671559 0.07409511 2)
    (0.07071066 0.07071067 2)
    (0.07730103 0.06343932 2)
    (0.07409513 0.06715589 2)
)


// edges:

798
(
    (0 1)
    (1 2)
    (3 0)
    (2 3)
    (4 5)
    (3 6)
    (6 7)
    (7 0)
    (8 9)
    (10 4)
    (9 11)
    (11 12)
    (13 10)
    (14 13)
    (12 15)
    (15 16)
    (17 14)
    (18 17)
    (16 19)
    (19 20)
    (21 18)
    (22 21)
    (20 23)
    (23 24)
    (25 22)
    (26 25)
    (24 27)
    (27 28)
    (29 26)
    (30 29)
    (28 31)
    (31 32)
    (33 30)
    (34 33)
    (32 35)
    (35 36)
    (37 34)
    (38 37)
    (36 39)
    (39 40)
    (41 38)
    (42 41)
    (40 43)
    (43 44)
    (45 42)
    (46 45)
    (44 47)
    (47 48)
    (49 46)
    (50 49)
    (48 51)
    (51 52)
    (53 50)
    (54 53)
    (52 55)
    (55 56)
    (57 54)
    (58 57)
    (56 59)
    (59 60)
    (61 58)
    (62 61)
    (60 63)
    (63 64)
    (65 62)
    (66 65)
    (64 67)
    (67 68)
    (69 66)
    (70 69)
    (68 71)
    (71 72)
    (73 70)
    (74 73)
    (72 75)
    (75 76)
    (77 74)
    (78 77)
    (76 79)
    (79 80)
    (81 78)
    (82 81)
    (80 83)
    (83 84)
    (85 82)
    (84 86)
    (86 87)
    (88 85)
    (89 88)
    (87 90)
    (90 91)
    (92 89)
    (93 92)
    (91 94)
    (94 95)
    (96 93)
    (97 96)
    (95 98)
    (98 99)
    (100 97)
    (99 101)
    (101 100)
    (7 102)
    (102 1)
    (103 104)
    (105 106)
    (106 107)
    (108 103)
    (107 109)
    (109 110)
    (111 108)
    (112 111)
    (110 113)
    (113 114)
    (115 112)
    (116 115)
    (114 117)
    (117 118)
    (119 116)
    (120 119)
    (118 121)
    (121 122)
    (123 120)
    (124 123)
    (122 125)
    (125 126)
    (127 124)
    (128 127)
    (126 129)
    (129 130)
    (131 128)
    (132 131)
    (130 133)
    (133 134)
    (135 132)
    (134 136)
    (136 135)
    (2 137)
    (137 6)
    (138 139)
    (139 140)
    (140 141)
    (141 142)
    (142 143)
    (143 144)
    (144 145)
    (145 146)
    (146 147)
    (147 148)
    (149 8)
    (5 150)
    (150 151)
    (152 149)
    (153 152)
    (151 154)
    (154 155)
    (156 153)
    (157 156)
    (155 158)
    (158 159)
    (160 157)
    (161 160)
    (159 162)
    (162 163)
    (164 161)
    (165 164)
    (163 166)
    (166 167)
    (168 165)
    (169 168)
    (167 170)
    (170 171)
    (172 169)
    (173 172)
    (171 174)
    (174 175)
    (176 173)
    (177 176)
    (175 178)
    (178 179)
    (180 177)
    (179 181)
    (181 180)
    (137 102)
    (182 183)
    (183 184)
    (184 185)
    (185 186)
    (186 187)
    (187 188)
    (188 189)
    (189 190)
    (190 191)
    (191 192)
    (192 193)
    (193 194)
    (194 195)
    (195 196)
    (196 197)
    (197 198)
    (198 199)
    (199 200)
    (200 201)
    (201 138)
    (202 105)
    (104 148)
    (203 202)
    (204 203)
    (205 204)
    (206 205)
    (207 206)
    (208 207)
    (209 208)
    (210 209)
    (211 210)
    (212 211)
    (213 212)
    (214 213)
    (215 214)
    (216 215)
    (217 216)
    (218 217)
    (219 218)
    (220 219)
    (221 220)
    (222 221)
    (223 222)
    (224 223)
    (225 224)
    (226 225)
    (227 226)
    (228 227)
    (229 228)
    (230 229)
    (231 230)
    (232 231)
    (233 232)
    (182 234)
    (234 235)
    (236 233)
    (237 236)
    (235 238)
    (238 239)
    (240 237)
    (241 240)
    (239 242)
    (242 243)
    (244 241)
    (245 244)
    (243 246)
    (246 247)
    (248 245)
    (249 248)
    (247 250)
    (250 251)
    (252 249)
    (253 252)
    (251 254)
    (254 255)
    (256 253)
    (257 256)
    (255 258)
    (258 259)
    (260 257)
    (261 260)
    (259 262)
    (262 263)
    (264 261)
    (263 265)
    (265 264)
    (105 8)
    (26 138)
    (139 25)
    (140 22)
    (141 21)
    (142 18)
    (143 17)
    (144 14)
    (145 13)
    (146 10)
    (147 4)
    (148 5)
    (66 182)
    (183 65)
    (184 62)
    (185 61)
    (186 58)
    (187 57)
    (188 54)
    (189 53)
    (190 50)
    (191 49)
    (192 46)
    (193 45)
    (194 42)
    (195 41)
    (196 38)
    (197 37)
    (198 34)
    (199 33)
    (200 30)
    (201 29)
    (159 115)
    (116 162)
    (158 112)
    (155 111)
    (154 108)
    (151 103)
    (150 104)
    (149 106)
    (152 107)
    (153 109)
    (156 110)
    (157 113)
    (160 114)
    (161 117)
    (164 118)
    (165 121)
    (168 122)
    (169 125)
    (172 126)
    (173 129)
    (176 130)
    (177 133)
    (180 134)
    (181 136)
    (179 135)
    (178 132)
    (175 131)
    (174 128)
    (171 127)
    (170 124)
    (167 123)
    (166 120)
    (163 119)
    (69 234)
    (70 235)
    (73 238)
    (74 239)
    (77 242)
    (78 243)
    (81 246)
    (82 247)
    (85 250)
    (88 251)
    (89 254)
    (92 255)
    (93 258)
    (96 259)
    (97 262)
    (100 263)
    (101 265)
    (99 264)
    (98 261)
    (95 260)
    (94 257)
    (91 256)
    (90 253)
    (87 252)
    (86 249)
    (84 248)
    (83 245)
    (80 244)
    (79 241)
    (76 240)
    (75 237)
    (72 236)
    (71 233)
    (68 232)
    (67 231)
    (64 230)
    (63 229)
    (60 228)
    (59 227)
    (56 226)
    (55 225)
    (52 224)
    (51 223)
    (48 222)
    (47 221)
    (44 220)
    (43 219)
    (40 218)
    (39 217)
    (36 216)
    (35 215)
    (32 214)
    (31 213)
    (28 212)
    (27 211)
    (24 210)
    (23 209)
    (20 208)
    (19 207)
    (16 206)
    (15 205)
    (12 204)
    (11 203)
    (9 202)
    (143 14)
    (144 13)
    (182 65)
    (187 54)
    (189 50)
    (193 42)
    (194 41)
    (195 38)
    (196 37)
    (198 33)
    (111 158)
    (108 155)
    (110 153)
    (114 157)
    (125 168)
    (130 173)
    (136 180)
    (132 179)
    (131 178)
    (128 175)
    (127 174)
    (124 171)
    (123 170)
    (116 163)
    (148 150)
    (235 69)
    (238 70)
    (258 92)
    (259 93)
    (262 96)
    (265 100)
    (260 98)
    (257 95)
    (256 94)
    (253 91)
    (248 86)
    (244 83)
    (237 76)
    (233 72)
    (231 68)
    (230 67)
    (226 59)
    (220 47)
    (219 44)
    (218 43)
    (216 39)
    (213 32)
    (211 28)
    (208 23)
    (207 20)
    (206 19)
    (205 16)
    (204 15)
    (203 12)
    (105 9)
    (2 0)
    (0 4)
    (5 0)
    (7 3)
    (8 7)
    (0 8)
    (9 7)
    (3 4)
    (3 10)
    (11 7)
    (12 7)
    (3 13)
    (3 14)
    (15 7)
    (16 7)
    (3 17)
    (3 18)
    (19 7)
    (20 7)
    (3 21)
    (3 22)
    (23 7)
    (24 7)
    (3 25)
    (3 26)
    (27 7)
    (28 7)
    (3 29)
    (3 30)
    (31 7)
    (32 7)
    (3 33)
    (3 34)
    (35 7)
    (36 7)
    (3 37)
    (3 38)
    (39 7)
    (40 7)
    (3 41)
    (3 42)
    (43 7)
    (44 7)
    (3 45)
    (3 46)
    (47 7)
    (48 7)
    (3 49)
    (3 50)
    (51 7)
    (52 7)
    (3 53)
    (3 54)
    (55 7)
    (56 7)
    (3 57)
    (3 58)
    (59 7)
    (60 7)
    (3 61)
    (3 62)
    (63 7)
    (64 7)
    (3 65)
    (3 66)
    (67 7)
    (68 7)
    (3 69)
    (3 70)
    (71 7)
    (72 7)
    (3 73)
    (3 74)
    (75 7)
    (76 7)
    (3 77)
    (3 78)
    (79 7)
    (80 7)
    (3 81)
    (3 82)
    (83 7)
    (84 7)
    (7 82)
    (7 85)
    (86 7)
    (87 7)
    (7 88)
    (7 89)
    (90 7)
    (91 7)
    (7 92)
    (7 93)
    (94 7)
    (95 7)
    (7 96)
    (7 97)
    (98 7)
    (99 7)
    (7 100)
    (101 7)
    (7 1)
    (2 103)
    (104 2)
    (106 1)
    (1 105)
    (107 1)
    (1 103)
    (1 108)
    (109 1)
    (110 1)
    (1 111)
    (1 112)
    (113 1)
    (114 1)
    (1 115)
    (1 116)
    (117 1)
    (118 1)
    (1 119)
    (1 120)
    (121 1)
    (122 1)
    (1 123)
    (1 124)
    (125 1)
    (126 1)
    (1 127)
    (1 128)
    (129 1)
    (130 1)
    (1 131)
    (1 132)
    (133 1)
    (134 1)
    (1 135)
    (136 1)
    (137 3)
    (138 25)
    (139 22)
    (140 21)
    (141 18)
    (142 17)
    (145 10)
    (146 4)
    (147 5)
    (0 149)
    (150 0)
    (151 0)
    (0 152)
    (0 153)
    (154 0)
    (155 0)
    (0 156)
    (0 157)
    (158 0)
    (159 0)
    (0 160)
    (0 161)
    (162 0)
    (163 0)
    (0 164)
    (0 165)
    (166 0)
    (167 0)
    (0 168)
    (0 169)
    (170 0)
    (171 0)
    (0 172)
    (0 173)
    (174 0)
    (175 0)
    (0 176)
    (0 177)
    (178 0)
    (179 0)
    (0 180)
    (181 0)
    (102 6)
    (183 62)
    (184 61)
    (185 58)
    (186 57)
    (188 53)
    (190 49)
    (191 46)
    (192 45)
    (197 34)
    (199 30)
    (200 29)
    (201 26)
    (1 202)
    (137 1)
    (148 2)
    (147 2)
    (1 203)
    (1 204)
    (146 2)
    (145 2)
    (1 205)
    (1 206)
    (144 2)
    (143 2)
    (1 207)
    (1 208)
    (142 2)
    (141 2)
    (1 209)
    (1 210)
    (140 2)
    (139 2)
    (137 210)
    (137 211)
    (138 2)
    (201 2)
    (137 212)
    (137 213)
    (200 2)
    (199 2)
    (137 214)
    (137 215)
    (198 2)
    (197 2)
    (137 216)
    (137 217)
    (196 2)
    (195 2)
    (137 218)
    (137 219)
    (194 2)
    (193 2)
    (137 220)
    (137 221)
    (192 2)
    (191 2)
    (137 222)
    (137 223)
    (190 2)
    (189 2)
    (137 224)
    (137 225)
    (189 137)
    (188 137)
    (137 226)
    (137 227)
    (187 137)
    (186 137)
    (137 228)
    (137 229)
    (185 137)
    (184 137)
    (137 230)
    (137 231)
    (183 137)
    (182 137)
    (137 232)
    (137 233)
    (234 137)
    (235 137)
    (137 236)
    (137 237)
    (238 137)
    (239 137)
    (137 240)
    (137 241)
    (242 137)
    (243 137)
    (137 244)
    (137 245)
    (246 137)
    (247 137)
    (137 248)
    (137 249)
    (250 137)
    (251 137)
    (137 252)
    (137 253)
    (254 137)
    (255 137)
    (137 256)
    (137 257)
    (258 137)
    (259 137)
    (137 260)
    (137 261)
    (262 137)
    (263 137)
    (137 264)
    (265 137)
    (115 162)
    (112 159)
    (103 154)
    (104 151)
    (8 106)
    (107 149)
    (109 152)
    (113 156)
    (117 160)
    (118 161)
    (121 164)
    (122 165)
    (126 169)
    (129 172)
    (133 176)
    (134 177)
    (135 181)
    (120 167)
    (119 166)
    (234 66)
    (239 73)
    (242 74)
    (243 77)
    (246 78)
    (247 81)
    (250 82)
    (251 85)
    (254 88)
    (255 89)
    (263 97)
    (264 101)
    (261 99)
    (252 90)
    (249 87)
    (245 84)
    (241 80)
    (240 79)
    (236 75)
    (232 71)
    (229 64)
    (228 63)
    (227 60)
    (225 56)
    (224 55)
    (223 52)
    (222 51)
    (221 48)
    (217 40)
    (215 36)
    (214 35)
    (212 31)
    (210 27)
    (209 24)
    (202 11)
)

// * * * * * * * * * * * * * * * * * * * * * * * * * * * * * * * * * * * * * //


// ************************************************************************* //
