/*--------------------------------*- C++ -*----------------------------------*\
| =========                 |                                                 |
| \\      /  F ield         | OpenFOAM: The Open Source CFD Toolbox           |
|  \\    /   O peration     | Version:  2.3.1                                 |
|   \\  /    A nd           | Web:      www.OpenFOAM.org                      |
|    \\/     M anipulation  |                                                 |
\*---------------------------------------------------------------------------*/
FoamFile {
  version     2.0;
  format      ascii;
  class       featureEdgeMesh;
  location    "constant/triSurface";
  object      porousMat.eMesh;
}
// * * * * * * * * * * * * * * * * * * * * * * * * * * * * * * * * * * * * * //


// points:

256
(
    (0 0.1 -4)
    (0 0.1 4)
    (0.004906768 0.09987955 4)
    (0.004906768 0.09987955 -4)
    (0.009801715 0.09951847 4)
    (0.009801715 0.09951847 -4)
    (0.01467305 0.09891766 4)
    (0.01467305 0.09891766 -4)
    (0.01950903 0.09807853 4)
    (0.01950903 0.09807853 -4)
    (0.02429802 0.09700312 4)
    (0.02429802 0.09700312 -4)
    (0.02902847 0.09569404 4)
    (0.02902847 0.09569404 -4)
    (0.03368898 0.09415441 4)
    (0.03368898 0.09415441 -4)
    (0.03826834 0.09238796 4)
    (0.03826834 0.09238796 -4)
    (0.04275551 0.09039893 4)
    (0.04275551 0.09039893 -4)
    (0.04713967 0.08819213 4)
    (0.04713967 0.08819213 -4)
    (0.05141028 0.08577286 4)
    (0.05141028 0.08577286 -4)
    (0.05555702 0.08314696 4)
    (0.05555702 0.08314696 -4)
    (0.05956993 0.08032075 4)
    (0.05956993 0.08032075 -4)
    (0.06343933 0.07730105 4)
    (0.06343933 0.07730105 -4)
    (0.0671559 0.07409511 4)
    (0.0671559 0.07409511 -4)
    (0.07071068 0.07071067 4)
    (0.07071068 0.07071067 -4)
    (0.07409512 0.06715589 4)
    (0.07409512 0.06715589 -4)
    (0.07730106 0.06343932 4)
    (0.07730106 0.06343932 -4)
    (0.08032077 0.05956992 4)
    (0.08032077 0.05956992 -4)
    (0.08314697 0.05555701 4)
    (0.08314697 0.05555701 -4)
    (0.08577287 0.05141026 4)
    (0.08577287 0.05141026 -4)
    (0.08819214 0.04713966 4)
    (0.08819214 0.04713966 -4)
    (0.09039894 0.04275549 4)
    (0.09039894 0.04275549 -4)
    (0.09238797 0.03826832 4)
    (0.09238797 0.03826832 -4)
    (0.09415442 0.03368896 4)
    (0.09415442 0.03368896 -4)
    (0.09569404 0.02902844 4)
    (0.09569404 0.02902844 -4)
    (0.09700313 0.02429799 4)
    (0.09700313 0.02429799 -4)
    (0.09807854 0.019509 4)
    (0.09807854 0.019509 -4)
    (0.09891766 0.01467301 4)
    (0.09891766 0.01467301 -4)
    (0.09951848 0.009801678 4)
    (0.09951848 0.009801678 -4)
    (0.09987955 0.004906729 4)
    (0.09987955 0.004906729 -4)
    (0.1 -4.013393e-08 4)
    (0.1 -4.013393e-08 -4)
    (0.09987955 -0.004906809 4)
    (0.09987955 -0.004906809 -4)
    (0.09951847 -0.009801758 4)
    (0.09951847 -0.009801758 -4)
    (0.09891765 -0.01467309 4)
    (0.09891765 -0.01467309 -4)
    (0.09807852 -0.01950908 4)
    (0.09807852 -0.01950908 -4)
    (0.09700312 -0.02429807 4)
    (0.09700312 -0.02429807 -4)
    (0.09569402 -0.02902852 4)
    (0.09569402 -0.02902852 -4)
    (0.09415439 -0.03368904 4)
    (0.09415439 -0.03368904 -4)
    (0.09238794 -0.0382684 4)
    (0.09238794 -0.0382684 -4)
    (0.09039891 -0.04275555 4)
    (0.09039891 -0.04275555 -4)
    (0.08819211 -0.0471397 4)
    (0.08819211 -0.0471397 -4)
    (0.08577285 -0.0514103 4)
    (0.08577285 -0.0514103 -4)
    (0.08314695 -0.05555704 4)
    (0.08314695 -0.05555704 -4)
    (0.08032075 -0.05956994 4)
    (0.08032075 -0.05956994 -4)
    (0.07730105 -0.06343933 4)
    (0.07730105 -0.06343933 -4)
    (0.07409512 -0.06715589 4)
    (0.07409512 -0.06715589 -4)
    (0.0707107 -0.07071066 4)
    (0.0707107 -0.07071066 -4)
    (0.06715592 -0.07409509 4)
    (0.06715592 -0.07409509 -4)
    (0.06343936 -0.07730102 4)
    (0.06343936 -0.07730102 -4)
    (0.05956997 -0.08032072 4)
    (0.05956997 -0.08032072 -4)
    (0.05555708 -0.08314692 4)
    (0.05555708 -0.08314692 -4)
    (0.05141034 -0.08577283 4)
    (0.05141034 -0.08577283 -4)
    (0.04713975 -0.08819209 4)
    (0.04713975 -0.08819209 -4)
    (0.04275559 -0.09039889 4)
    (0.04275559 -0.09039889 -4)
    (0.03826844 -0.09238791 4)
    (0.03826844 -0.09238791 -4)
    (0.03368909 -0.09415437 4)
    (0.03368909 -0.09415437 -4)
    (0.02902859 -0.095694 4)
    (0.02902859 -0.095694 -4)
    (0.02429815 -0.09700309 4)
    (0.02429815 -0.09700309 -4)
    (0.01950917 -0.0980785 4)
    (0.01950917 -0.0980785 -4)
    (0.0146732 -0.09891763 4)
    (0.0146732 -0.09891763 -4)
    (0.009801875 -0.09951846 4)
    (0.009801875 -0.09951846 -4)
    (0.004906939 -0.09987954 4)
    (0.004906939 -0.09987954 -4)
    (1.819926e-07 -0.1 4)
    (1.819926e-07 -0.1 -4)
    (-0.004906576 -0.09987956 4)
    (-0.004906576 -0.09987956 -4)
    (-0.009801514 -0.09951849 4)
    (-0.009801514 -0.09951849 -4)
    (-0.01467284 -0.09891769 4)
    (-0.01467284 -0.09891769 -4)
    (-0.01950881 -0.09807857 4)
    (-0.01950881 -0.09807857 -4)
    (-0.02429779 -0.09700318 4)
    (-0.02429779 -0.09700318 -4)
    (-0.02902824 -0.0956941 4)
    (-0.02902824 -0.0956941 -4)
    (-0.03368875 -0.09415449 4)
    (-0.03368875 -0.09415449 -4)
    (-0.0382681 -0.09238806 4)
    (-0.0382681 -0.09238806 -4)
    (-0.04275526 -0.09039905 4)
    (-0.04275526 -0.09039905 -4)
    (-0.04713943 -0.08819226 4)
    (-0.04713943 -0.08819226 -4)
    (-0.05141003 -0.08577301 4)
    (-0.05141003 -0.08577301 -4)
    (-0.05555677 -0.08314713 4)
    (-0.05555677 -0.08314713 -4)
    (-0.05956968 -0.08032094 4)
    (-0.05956968 -0.08032094 -4)
    (-0.06343909 -0.07730126 4)
    (-0.06343909 -0.07730126 -4)
    (-0.06715565 -0.07409533 4)
    (-0.06715565 -0.07409533 -4)
    (-0.07071044 -0.07071092 4)
    (-0.07071044 -0.07071092 -4)
    (-0.07409488 -0.06715616 4)
    (-0.07409488 -0.06715616 -4)
    (-0.07730084 -0.06343959 4)
    (-0.07730084 -0.06343959 -4)
    (-0.08032056 -0.05957019 4)
    (-0.08032056 -0.05957019 -4)
    (-0.08314679 -0.05555728 4)
    (-0.08314679 -0.05555728 -4)
    (-0.08577272 -0.05141053 4)
    (-0.08577272 -0.05141053 -4)
    (-0.08819199 -0.04713992 4)
    (-0.08819199 -0.04713992 -4)
    (-0.09039881 -0.04275575 4)
    (-0.09039881 -0.04275575 -4)
    (-0.09238786 -0.03826858 4)
    (-0.09238786 -0.03826858 -4)
    (-0.09415433 -0.03368921 4)
    (-0.09415433 -0.03368921 -4)
    (-0.09569397 -0.02902868 4)
    (-0.09569397 -0.02902868 -4)
    (-0.09700307 -0.02429822 4)
    (-0.09700307 -0.02429822 -4)
    (-0.09807849 -0.01950923 4)
    (-0.09807849 -0.01950923 -4)
    (-0.09891763 -0.01467323 4)
    (-0.09891763 -0.01467323 -4)
    (-0.09951846 -0.009801883 4)
    (-0.09951846 -0.009801883 -4)
    (-0.09987954 -0.004906923 4)
    (-0.09987954 -0.004906923 -4)
    (-0.1 -1.418587e-07 4)
    (-0.1 -1.418587e-07 -4)
    (-0.09987956 0.00490664 4)
    (-0.09987956 0.00490664 -4)
    (-0.09951849 0.009801601 4)
    (-0.09951849 0.009801601 -4)
    (-0.09891766 0.01467295 4)
    (-0.09891766 0.01467295 -4)
    (-0.09807854 0.01950895 4)
    (-0.09807854 0.01950895 -4)
    (-0.09700315 0.02429795 4)
    (-0.09700315 0.02429795 -4)
    (-0.09569406 0.02902841 4)
    (-0.09569406 0.02902841 -4)
    (-0.09415442 0.03368894 4)
    (-0.09415442 0.03368894 -4)
    (-0.09238797 0.03826832 4)
    (-0.09238797 0.03826832 -4)
    (-0.09039894 0.0427555 4)
    (-0.09039894 0.0427555 -4)
    (-0.08819213 0.04713967 4)
    (-0.08819213 0.04713967 -4)
    (-0.08577286 0.05141028 4)
    (-0.08577286 0.05141028 -4)
    (-0.08314695 0.05555704 4)
    (-0.08314695 0.05555704 -4)
    (-0.08032073 0.05956996 4)
    (-0.08032073 0.05956996 -4)
    (-0.07730102 0.06343937 4)
    (-0.07730102 0.06343937 -4)
    (-0.07409507 0.06715595 4)
    (-0.07409507 0.06715595 -4)
    (-0.07071062 0.07071074 4)
    (-0.07071062 0.07071074 -4)
    (-0.06715583 0.07409518 4)
    (-0.06715583 0.07409518 -4)
    (-0.06343924 0.07730111 4)
    (-0.06343924 0.07730111 -4)
    (-0.05956983 0.08032083 4)
    (-0.05956983 0.08032083 -4)
    (-0.05555691 0.08314704 4)
    (-0.05555691 0.08314704 -4)
    (-0.05141015 0.08577294 4)
    (-0.05141015 0.08577294 -4)
    (-0.04713953 0.08819221 4)
    (-0.04713953 0.08819221 -4)
    (-0.04275535 0.090399 4)
    (-0.04275535 0.090399 -4)
    (-0.03826817 0.09238803 4)
    (-0.03826817 0.09238803 -4)
    (-0.03368879 0.09415448 4)
    (-0.03368879 0.09415448 -4)
    (-0.02902826 0.09569409 4)
    (-0.02902826 0.09569409 -4)
    (-0.02429779 0.09700318 4)
    (-0.02429779 0.09700318 -4)
    (-0.01950879 0.09807858 4)
    (-0.01950879 0.09807858 -4)
    (-0.01467279 0.09891769 4)
    (-0.01467279 0.09891769 -4)
    (-0.00980144 0.0995185 4)
    (-0.00980144 0.0995185 -4)
    (-0.004906478 0.09987956 4)
    (-0.004906478 0.09987956 -4)
)


// edges:

762
(
    (1 2)
    (0 1)
    (2 3)
    (3 0)
    (2 4)
    (4 5)
    (5 3)
    (4 6)
    (6 7)
    (7 5)
    (6 8)
    (8 9)
    (9 7)
    (8 10)
    (10 11)
    (11 9)
    (10 12)
    (12 13)
    (13 11)
    (12 14)
    (14 15)
    (15 13)
    (14 16)
    (16 17)
    (17 15)
    (16 18)
    (18 19)
    (19 17)
    (18 20)
    (20 21)
    (21 19)
    (20 22)
    (22 23)
    (23 21)
    (22 24)
    (24 25)
    (25 23)
    (24 26)
    (26 27)
    (27 25)
    (26 28)
    (28 29)
    (29 27)
    (28 30)
    (30 31)
    (31 29)
    (30 32)
    (32 33)
    (33 31)
    (32 34)
    (34 35)
    (35 33)
    (34 36)
    (36 37)
    (37 35)
    (36 38)
    (38 39)
    (39 37)
    (38 40)
    (40 41)
    (41 39)
    (40 42)
    (42 43)
    (43 41)
    (42 44)
    (44 45)
    (45 43)
    (44 46)
    (46 47)
    (47 45)
    (46 48)
    (48 49)
    (49 47)
    (48 50)
    (50 51)
    (51 49)
    (50 52)
    (52 53)
    (53 51)
    (52 54)
    (54 55)
    (55 53)
    (54 56)
    (56 57)
    (57 55)
    (56 58)
    (58 59)
    (59 57)
    (58 60)
    (60 61)
    (61 59)
    (60 62)
    (62 63)
    (63 61)
    (62 64)
    (64 65)
    (65 63)
    (64 66)
    (66 67)
    (67 65)
    (66 68)
    (68 69)
    (69 67)
    (68 70)
    (70 71)
    (71 69)
    (70 72)
    (72 73)
    (73 71)
    (72 74)
    (74 75)
    (75 73)
    (74 76)
    (76 77)
    (77 75)
    (76 78)
    (78 79)
    (79 77)
    (78 80)
    (80 81)
    (81 79)
    (80 82)
    (82 83)
    (83 81)
    (82 84)
    (84 85)
    (85 83)
    (84 86)
    (86 87)
    (87 85)
    (86 88)
    (88 89)
    (89 87)
    (88 90)
    (90 91)
    (91 89)
    (90 92)
    (92 93)
    (93 91)
    (92 94)
    (94 95)
    (95 93)
    (94 96)
    (96 97)
    (97 95)
    (96 98)
    (98 99)
    (99 97)
    (98 100)
    (100 101)
    (101 99)
    (100 102)
    (102 103)
    (103 101)
    (102 104)
    (104 105)
    (105 103)
    (104 106)
    (106 107)
    (107 105)
    (106 108)
    (108 109)
    (109 107)
    (108 110)
    (110 111)
    (111 109)
    (110 112)
    (112 113)
    (113 111)
    (112 114)
    (114 115)
    (115 113)
    (114 116)
    (116 117)
    (117 115)
    (116 118)
    (118 119)
    (119 117)
    (118 120)
    (120 121)
    (121 119)
    (120 122)
    (122 123)
    (123 121)
    (122 124)
    (124 125)
    (125 123)
    (124 126)
    (126 127)
    (127 125)
    (126 128)
    (128 129)
    (129 127)
    (128 130)
    (130 131)
    (131 129)
    (130 132)
    (132 133)
    (133 131)
    (132 134)
    (134 135)
    (135 133)
    (134 136)
    (136 137)
    (137 135)
    (136 138)
    (138 139)
    (139 137)
    (138 140)
    (140 141)
    (141 139)
    (140 142)
    (142 143)
    (143 141)
    (142 144)
    (144 145)
    (145 143)
    (144 146)
    (146 147)
    (147 145)
    (146 148)
    (148 149)
    (149 147)
    (148 150)
    (150 151)
    (151 149)
    (150 152)
    (152 153)
    (153 151)
    (152 154)
    (154 155)
    (155 153)
    (154 156)
    (156 157)
    (157 155)
    (156 158)
    (158 159)
    (159 157)
    (158 160)
    (160 161)
    (161 159)
    (160 162)
    (162 163)
    (163 161)
    (162 164)
    (164 165)
    (165 163)
    (164 166)
    (166 167)
    (167 165)
    (166 168)
    (168 169)
    (169 167)
    (168 170)
    (170 171)
    (171 169)
    (170 172)
    (172 173)
    (173 171)
    (172 174)
    (174 175)
    (175 173)
    (174 176)
    (176 177)
    (177 175)
    (176 178)
    (178 179)
    (179 177)
    (178 180)
    (180 181)
    (181 179)
    (180 182)
    (182 183)
    (183 181)
    (182 184)
    (184 185)
    (185 183)
    (184 186)
    (186 187)
    (187 185)
    (186 188)
    (188 189)
    (189 187)
    (188 190)
    (190 191)
    (191 189)
    (190 192)
    (192 193)
    (193 191)
    (192 194)
    (194 195)
    (195 193)
    (194 196)
    (196 197)
    (197 195)
    (196 198)
    (198 199)
    (199 197)
    (198 200)
    (200 201)
    (201 199)
    (200 202)
    (202 203)
    (203 201)
    (202 204)
    (204 205)
    (205 203)
    (204 206)
    (206 207)
    (207 205)
    (206 208)
    (208 209)
    (209 207)
    (208 210)
    (210 211)
    (211 209)
    (210 212)
    (212 213)
    (213 211)
    (212 214)
    (214 215)
    (215 213)
    (214 216)
    (216 217)
    (217 215)
    (216 218)
    (218 219)
    (219 217)
    (218 220)
    (220 221)
    (221 219)
    (220 222)
    (222 223)
    (223 221)
    (222 224)
    (224 225)
    (225 223)
    (224 226)
    (226 227)
    (227 225)
    (226 228)
    (228 229)
    (229 227)
    (228 230)
    (230 231)
    (231 229)
    (230 232)
    (232 233)
    (233 231)
    (232 234)
    (234 235)
    (235 233)
    (234 236)
    (236 237)
    (237 235)
    (236 238)
    (238 239)
    (239 237)
    (238 240)
    (240 241)
    (241 239)
    (240 242)
    (242 243)
    (243 241)
    (242 244)
    (244 245)
    (245 243)
    (244 246)
    (246 247)
    (247 245)
    (246 248)
    (248 249)
    (249 247)
    (248 250)
    (250 251)
    (251 249)
    (250 252)
    (252 253)
    (253 251)
    (254 252)
    (1 254)
    (254 255)
    (255 253)
    (0 255)
    (4 3)
    (6 5)
    (24 23)
    (26 25)
    (28 27)
    (30 29)
    (36 35)
    (38 37)
    (42 41)
    (44 43)
    (46 45)
    (48 47)
    (50 49)
    (52 51)
    (54 53)
    (68 67)
    (70 69)
    (72 71)
    (78 77)
    (84 83)
    (92 91)
    (98 97)
    (100 99)
    (106 105)
    (108 107)
    (110 109)
    (116 115)
    (120 119)
    (122 121)
    (124 123)
    (126 125)
    (136 135)
    (140 139)
    (142 141)
    (150 149)
    (152 151)
    (156 155)
    (160 159)
    (164 163)
    (166 165)
    (170 169)
    (172 171)
    (178 177)
    (188 187)
    (190 189)
    (196 195)
    (198 197)
    (202 201)
    (206 205)
    (214 213)
    (216 215)
    (228 227)
    (230 229)
    (232 231)
    (234 233)
    (242 241)
    (246 245)
    (2 0)
    (8 7)
    (10 9)
    (12 11)
    (14 13)
    (16 15)
    (18 17)
    (20 19)
    (22 21)
    (32 31)
    (34 33)
    (40 39)
    (56 55)
    (58 57)
    (60 59)
    (62 61)
    (64 63)
    (66 65)
    (74 73)
    (76 75)
    (80 79)
    (82 81)
    (86 85)
    (88 87)
    (90 89)
    (94 93)
    (96 95)
    (102 101)
    (104 103)
    (112 111)
    (114 113)
    (118 117)
    (128 127)
    (130 129)
    (132 131)
    (134 133)
    (138 137)
    (144 143)
    (146 145)
    (148 147)
    (154 153)
    (158 157)
    (162 161)
    (168 167)
    (174 173)
    (176 175)
    (180 179)
    (182 181)
    (184 183)
    (186 185)
    (192 191)
    (194 193)
    (200 199)
    (204 203)
    (208 207)
    (210 209)
    (212 211)
    (218 217)
    (220 219)
    (222 221)
    (224 223)
    (226 225)
    (236 235)
    (238 237)
    (240 239)
    (244 243)
    (248 247)
    (250 249)
    (252 251)
    (1 4)
    (252 1)
    (248 252)
    (244 248)
    (240 244)
    (236 240)
    (232 236)
    (228 232)
    (224 228)
    (220 224)
    (216 220)
    (212 216)
    (208 212)
    (204 208)
    (200 204)
    (196 200)
    (192 196)
    (188 192)
    (184 188)
    (180 184)
    (176 180)
    (172 176)
    (168 172)
    (164 168)
    (160 164)
    (156 160)
    (152 156)
    (148 152)
    (144 148)
    (140 144)
    (136 140)
    (132 136)
    (128 132)
    (124 128)
    (120 124)
    (116 120)
    (112 116)
    (108 112)
    (104 108)
    (100 104)
    (96 100)
    (92 96)
    (88 92)
    (84 88)
    (80 84)
    (76 80)
    (72 76)
    (68 72)
    (64 68)
    (60 64)
    (56 60)
    (52 56)
    (48 52)
    (44 48)
    (40 44)
    (36 40)
    (32 36)
    (28 32)
    (24 28)
    (20 24)
    (16 20)
    (12 16)
    (8 12)
    (4 8)
    (252 4)
    (244 252)
    (236 244)
    (228 236)
    (220 228)
    (212 220)
    (204 212)
    (196 204)
    (188 196)
    (180 188)
    (172 180)
    (164 172)
    (156 164)
    (148 156)
    (140 148)
    (132 140)
    (124 132)
    (116 124)
    (108 116)
    (100 108)
    (92 100)
    (84 92)
    (76 84)
    (68 76)
    (60 68)
    (52 60)
    (44 52)
    (36 44)
    (28 36)
    (20 28)
    (12 20)
    (4 12)
    (244 4)
    (228 244)
    (212 228)
    (196 212)
    (180 196)
    (164 180)
    (148 164)
    (132 148)
    (116 132)
    (100 116)
    (84 100)
    (68 84)
    (52 68)
    (36 52)
    (20 36)
    (4 20)
    (228 4)
    (196 228)
    (164 196)
    (132 164)
    (100 132)
    (68 100)
    (36 68)
    (4 36)
    (196 4)
    (132 196)
    (68 132)
    (4 68)
    (132 4)
    (254 253)
    (255 1)
    (3 255)
    (7 3)
    (11 7)
    (15 11)
    (19 15)
    (23 19)
    (27 23)
    (31 27)
    (35 31)
    (39 35)
    (43 39)
    (47 43)
    (51 47)
    (55 51)
    (59 55)
    (63 59)
    (67 63)
    (71 67)
    (75 71)
    (79 75)
    (83 79)
    (87 83)
    (91 87)
    (95 91)
    (99 95)
    (103 99)
    (107 103)
    (111 107)
    (115 111)
    (119 115)
    (123 119)
    (127 123)
    (131 127)
    (135 131)
    (139 135)
    (143 139)
    (147 143)
    (151 147)
    (155 151)
    (159 155)
    (163 159)
    (167 163)
    (171 167)
    (175 171)
    (179 175)
    (183 179)
    (187 183)
    (191 187)
    (195 191)
    (199 195)
    (203 199)
    (207 203)
    (211 207)
    (215 211)
    (219 215)
    (223 219)
    (227 223)
    (231 227)
    (235 231)
    (239 235)
    (243 239)
    (247 243)
    (251 247)
    (255 251)
    (7 255)
    (15 7)
    (23 15)
    (31 23)
    (39 31)
    (47 39)
    (55 47)
    (63 55)
    (71 63)
    (79 71)
    (87 79)
    (95 87)
    (103 95)
    (111 103)
    (119 111)
    (127 119)
    (135 127)
    (143 135)
    (151 143)
    (159 151)
    (167 159)
    (175 167)
    (183 175)
    (191 183)
    (199 191)
    (207 199)
    (215 207)
    (223 215)
    (231 223)
    (239 231)
    (247 239)
    (255 247)
    (15 255)
    (31 15)
    (47 31)
    (63 47)
    (79 63)
    (95 79)
    (111 95)
    (127 111)
    (143 127)
    (159 143)
    (175 159)
    (191 175)
    (207 191)
    (223 207)
    (239 223)
    (255 239)
    (31 255)
    (63 31)
    (95 63)
    (127 95)
    (159 127)
    (191 159)
    (223 191)
    (255 223)
    (63 255)
    (127 63)
    (191 127)
    (255 191)
    (127 255)
)

// * * * * * * * * * * * * * * * * * * * * * * * * * * * * * * * * * * * * * //


// ************************************************************************* //
