/*--------------------------------*- C++ -*----------------------------------*\
| =========                 |                                                 |
| \\      /  F ield         | OpenFOAM: The Open Source CFD Toolbox           |
|  \\    /   O peration     | Version:  4.x                                   |
|   \\  /    A nd           | Web:      www.OpenFOAM.org                      |
|    \\/     M anipulation  |                                                 |
\*---------------------------------------------------------------------------*/
FoamFile {
  version     2.0;
  format      ascii;
  class       dictionary;
  object      blockMeshDict;
}
// * * * * * * * * * * * * * * * * * * * * * * * * * * * * * * * * * * * * * //

convertToMeters 0.01;

vertices
(
    (0 0 0)     // 0
    (10 0 0)    // 1
    (10 1 0)    // 2
    (0 1 0)     // 3
    (0 0 1)     // 4
    (10 0 1)    // 5
    (10 1 1)    // 6
    (0 1 1)     // 7

    /*(0 0 0)     // 0
    (10 0 0)    // 1
    (10 4 0)    // 2
    (0 4 0)     // 3
    (0 0 1)     // 4
    (10 0 1)    // 5
    (10 4 1)    // 6
    (0 4 1)     // 7 */
);



blocks
(
    hex (0 1 2 3 4 5 6 7) (100 1 1) simpleGrading (1 1 1)
);


boundary
(
left {
  type wall;
  faces
  (
      (4 7 3 0)
  );
}
right {
  type patch;
  faces
  (
      (1 2 6 5)
  );
}
down {
  type empty;
  faces
  (
      (0 1 5 4)
  );
}
up {
  type empty;
  faces
  (
      (3 7 6 2)
  );
}
frontAndBack {
  type empty;
  faces
  (
      (4 5 6 7)
      (0 3 2 1)
  );
}
);

mergePatchPairs
(
);

// ************************************************************************* //
