/**/
FoamFile {
  version     2.0;
  format      ascii;
  class       dictionary;
  object      blockMeshDict;
}
// * * * * * * * * * * * * * * * * * * * * * * * * * * * * * * * * * * * * * //

convertToMeters 0.01; //cm

vertices
(
// subMat2
    (0 0 0) // 0
    (1 0 0) // 1
    (1 1.27 0) // 2
    (0 1.27 0) // 3
    (0 0 1) // 4
    (1 0 1) // 5
    (1 1.27 1) // 6
    (0 1.27 1) // 7
// subMat1
    (0 1.41 0) // 8
    (1 1.41 0) // 9
    (1 1.41 1) // 10
    (0 1.41 1) // 11
// porousMat
    (0 7.21 0) // 12
    (1 7.21 0) // 13
    (1 7.21 1) // 14
    (0 7.21 1) // 15

);

blocks
(
    hex (0 1 2 3 4 5 6 7) subMat2 (1 10 1) simpleGrading (1 1 1)
    hex (3 2 9 8 7 6 10 11) subMat1 (1 2 1) simpleGrading (1 1 1)
    hex (8 9 13 12 11 10 14 15) porousMat (1 200 1) simpleGrading (1 0.1 1)
);

edges
(
);

patches
(
    wall top
    (
        (12 15 14 13) // porousMat
    )
    wall sides
    (
// subMat2
        (0 4 7 3)
        (0 3 2 1)
        (5 1 2 6)
        (4 5 6 7)
// subMat1
        (7 11 8 3)
        (3 8 9 2)
        (2 9 10 6)
        (7 6 10 11)
// porousMat
        (8 11 15 12)
        (8 12 13 9)
        (10 9 13 14)
        (11 10 14 15)
    )
    wall bottom
    (
        (0 1 5 4) // subMat2
    )
);

mergePatchPairs
(
);

// ************************************************************************* //


// ************************************************************************* //
