/*--------------------------------*- C++ -*----------------------------------*\
| =========                 |                                                 |
| \\      /  F ield         | OpenFOAM: The Open Source CFD Toolbox           |
|  \\    /   O peration     | Version:  4.x                                   |
|   \\  /    A nd           | Web:      www.OpenFOAM.org                      |
|    \\/     M anipulation  |                                                 |
\*---------------------------------------------------------------------------*/
FoamFile {
  version     2.0;
  format      ascii;
  class       dictionary;
  location    "system";
  object      fvSchemes;
}
// * * * * * * * * * * * * * * * * * * * * * * * * * * * * * * * * * * * * * //

ddtSchemes {
default         Euler;
}

gradSchemes {
default         Gauss linear;
  grad(p)         Gauss linear corrected;
}

divSchemes {
default         none;
}

laplacianSchemes {
default         none;
  laplacian(Gamma,p)  Gauss linear corrected;
}

interpolationSchemes {
default         linear;
}

snGradSchemes {
default         corrected;
}


// ************************************************************************* //
