/*--------------------------------*- C++ -*----------------------------------*\
  =========                 |
  \\      /  F ield         | OpenFOAM: The Open Source CFD Toolbox
   \\    /   O peration     | Website:  https://openfoam.org
    \\  /    A nd           | Version:  7
     \\/     M anipulation  |
\*---------------------------------------------------------------------------*/
FoamFile {
  version     2.0;
  format      ascii;
  class       polyBoundaryMesh;
  location    "constant/tank/polyMesh";
  object      boundary;
}
// * * * * * * * * * * * * * * * * * * * * * * * * * * * * * * * * * * * * * //

6
(
top {
  type            patch;
  nFaces          2;
  startFace       88;
}
bottom {
  type            patch;
  nFaces          2;
  startFace       90;
}
wall {
  type            wall;
  inGroups        List<word> 1(wall);
  nFaces          30;
  startFace       92;
}
wedge1 {
  type            wedge;
  inGroups        List<word> 1(wedge);
  nFaces          60;
  startFace       122;
}
wedge2 {
  type            wedge;
  inGroups        List<word> 1(wedge);
  nFaces          60;
  startFace       182;
}
tank_to_porousMat {
  type            mappedWall;
  inGroups        List<word> 1(wall);
  nFaces          30;
  startFace       242;
  sampleMode      nearestPatchFace;
  sampleRegion    porousMat;
  samplePatch     porousMat_to_tank;
}
)

// ************************************************************************* //
