THERMO ALL
   200.000  1000.000  5000.000
AR                120186AR  1               G  0200.00   5000.00  1000.00      1
 0.02500000E+02 0.00000000E+00 0.00000000E+00 0.00000000E+00 0.00000000E+00    2
-0.07453750E+04 0.04366001E+02 0.02500000E+02 0.00000000E+00 0.00000000E+00    3
 0.00000000E+00 0.00000000E+00-0.07453750E+04 0.04366001E+02                   4
N2                xml2ckN   2               G  0200.00  3500.00  1000.00       1
 2.92664000e+00 1.48797680e-03-5.68476000e-07 1.00970380e-10-6.75335100e-15    2
-9.22797700e+02 5.98052800e+00 3.29867700e+00 1.40824040e-03-3.96322200e-06    3
 5.64151500e-09-2.44485400e-12-1.02089990e+03 3.95037200e+00                   4
H                 xml2ckH   1               G   200.000  3500.000  1000.000    1
 2.50000001e+00-2.30842973e-11 1.61561948e-14-4.73515235e-18 4.98197357e-22    2
 2.54736599e+04-4.46682914e-01 2.50000000e+00 7.05332819e-13-1.99591964e-15    3
 2.30081632e-18-9.27732332e-22 2.54736599e+04-4.46682853e-01                   4
OH                xml2ckH   1O   1   00   00G   200.000  3500.000  1000.000    1
 2.86472886e+00 1.05650448e-03-2.59082758e-07 3.05218674e-11-1.33195876e-15    2
 3.71885774e+03 5.70164073e+00 4.12530561e+00-3.22544939e-03 6.52764691e-06    3
-5.79853643e-09 2.06237379e-12 3.38153812e+03-6.90432960e-01                   4
H2                xml2ckH   2   00   00   00G   200.000  3500.000  1000.000    1
 3.33727920e+00-4.94024731e-05 4.99456778e-07-1.79566394e-10 2.00255376e-14    2
-9.50158922e+02-3.20502331e+00 2.34433112e+00 7.98052075e-03-1.94781510e-05    3
 2.01572094e-08-7.37611761e-12-9.17935173e+02 6.83010238e-01                   4
H2O               xml2ckH   2O   1   00   00G   200.000  3500.000  1000.000    1
 3.03399249e+00 2.17691804e-03-1.64072518e-07-9.70419870e-11 1.68200992e-14    2
-3.00042971e+04 4.96677010e+00 4.19864056e+00-2.03643410e-03 6.52040211e-06    3
-5.48797062e-09 1.77197817e-12-3.02937267e+04-8.49032208e-01                   4
CO2               xml2ckC   1O   2   00   00G   200.000  3500.000  1000.000    1
 3.85746029e+00 4.41437026e-03-2.21481404e-06 5.23490188e-10-4.72084164e-14    2
-4.87591660e+04 2.27163806e+00 2.35677352e+00 8.98459677e-03-7.12356269e-06    3
 2.45919022e-09-1.43699548e-13-4.83719697e+04 9.90105222e+00                   4
CO                xml2ckC   1O   1   00   00G   200.000  3500.000  1000.000    1
 2.71518561e+00 2.06252743e-03-9.98825771e-07 2.30053008e-10-2.03647716e-14    2
-1.41518724e+04 7.81868772e+00 3.57953347e+00-6.10353680e-04 1.01681433e-06    3
 9.07005884e-10-9.04424499e-13-1.43440860e+04 3.50840928e+00                   4
CH3               xml2ckH   3C   1   00   00G   200.000  3500.000  1000.000    1
 2.97812060e+00 5.79785200e-03-1.97558000e-06 3.07297900e-10-1.79174160e-14    2
 1.65095130e+04 4.72247990e+00 3.65717970e+00 2.12659790e-03 5.45838830e-06    3
-6.61810030e-09 2.46570740e-12 1.64227160e+04 1.67353540e+00                   4
C2H               xml2ckH   1C   2   00   00G   200.000  3500.000  1000.000    1
 3.16780652e+00 4.75221902e-03-1.83787077e-06 3.04190252e-10-1.77232770e-14    2
 6.71210650e+04 6.63589475e+00 2.88965733e+00 1.34099611e-02-2.84769501e-05    3
 2.94791045e-08-1.09331511e-11 6.68393932e+04 6.22296438e+00                   4
CH2CO             xml2ckH   2C   2O   1   00G   200.000  3500.000  1000.000    1
 4.51129732e+00 9.00359745e-03-4.16939635e-06 9.23345882e-10-7.94838201e-14    2
-7.55105311e+03 6.32247205e-01 2.13583630e+00 1.81188721e-02-1.73947474e-05    3
 9.34397568e-09-2.01457615e-12-7.04291804e+03 1.22156480e+01                   4
C2H2              xml2ckH   2C   2   00   00G   200.000  3500.000  1000.000    1
 4.14756964e+00 5.96166664e-03-2.37294852e-06 4.67412171e-10-3.61235213e-14    2
 2.59359992e+04-1.23028121e+00 8.08681094e-01 2.33615629e-02-3.55171815e-05    3
 2.80152437e-08-8.50072974e-12 2.64289807e+04 1.39397051e+01                   4
P-CH2             xml2ckH   2C   1   00   00G   200.000  3500.000  1000.000    1
 2.29203842e+00 4.65588637e-03-2.01191947e-06 4.17906000e-10-3.39716365e-14    2
 5.09259997e+04 8.62650169e+00 4.19860411e+00-2.36661419e-03 8.23296220e-06    3
-6.68815981e-09 1.94314737e-12 5.04968163e+04-7.69118967e-01                   4
CH4               xml2ckH   4C   1   00   00G   200.000  3500.000  1000.000    1
 1.65326226e+00 1.00263099e-02-3.31661238e-06 5.36483138e-10-3.14696758e-14    2
-1.00095936e+04 9.90506283e+00 5.14911468e+00-1.36622009e-02 4.91453921e-05    3
-4.84246767e-08 1.66603441e-11-1.02465983e+04-4.63848842e+00                   4
C2H3              xml2ckH   3C   2   00   00G   200.000  3500.000  1000.000    1
 3.01672400e+00 1.03302292e-02-4.68082349e-06 1.01763288e-09-8.62607041e-14    2
 3.46128739e+04 7.78732378e+00 3.21246645e+00 1.51479162e-03 2.59209412e-05    3
-3.57657847e-08 1.47150873e-11 3.48598468e+04 8.51054025e+00                   4
C2H4              xml2ckH   4C   2   00   00G   200.000  3500.000  1000.000    1
 2.03611116e+00 1.46454151e-02-6.71077915e-06 1.47222923e-09-1.25706061e-13    2
 4.93988614e+03 1.03053693e+01 3.95920148e+00-7.57052247e-03 5.70990292e-05    3
-6.91588753e-08 2.69884373e-11 5.08977593e+03 4.09733096e+00                   4
C2H5              xml2ckH   5C   2   00   00G   200.000  3500.000  1000.000    1
 1.95465642e+00 1.73972722e-02-7.98206668e-06 1.75217689e-09-1.49641576e-13    2
 1.28575200e+04 1.34624343e+01 4.30646568e+00-4.18658892e-03 4.97142807e-05    3
-5.99126606e-08 2.30509004e-11 1.28416265e+04 4.70720924e+00                   4
C3H3              xml2ckH   3C   3   00   00G   200.000  3500.000  1000.000    1
 6.14915291e+00 9.34063166e-03-3.75055354e-06 6.90156316e-10-4.60824994e-14    2
 3.83854848e+04-7.45345215e+00 1.40299238e+00 3.01773327e-02-3.98449373e-05    3
 2.93534629e-08-8.70554579e-12 3.93108220e+04 1.51527845e+01                   4
P-C3H4            xml2ckH   4C   3   00   00G   200.000  3500.000  1000.000    1
 2.81460543e+00 1.85524496e-02-9.55026768e-06 2.39951370e-09-2.37485257e-13    2
 2.07010771e+04 8.60604972e+00 1.46175323e+00 2.46026602e-02-1.90219395e-05    3
 8.60363422e-09-1.66729240e-12 2.09209793e+04 1.49262585e+01                   4
A-C3H4            xml2ckH   4C   3   00   00G   200.000  3500.000  1000.000    1
 2.56128757e+00 1.95080128e-02-1.04061366e-05 2.70165173e-09-2.75074329e-13    2
 2.13894289e+04 9.20550397e+00 3.68928265e-01 2.89351397e-02-2.44386408e-05    3
 1.12547166e-08-2.03040262e-12 2.17585256e+04 1.95267211e+01                   4
N-C4H3            xml2ckH   3C   4   00   00G   200.000  3500.000  1000.000    1
 7.25330164e+00 1.19580846e-02-5.26715675e-06 1.09981875e-09-8.84016751e-14    2
 6.28977574e+04-1.05283126e+01-3.55175031e-02 4.30508503e-02-5.75729147e-05    3
 4.15883142e-08-1.20750857e-11 6.43506593e+04 2.43816855e+01                   4
A-C3H5            xml2ckH   5C   3   00   00G   200.000  3500.000  1000.000    1
 2.28794927e+00 2.36401575e-02-1.27891450e-05 3.36838540e-09-3.47449449e-13    2
 1.83033514e+04 1.14063418e+01-1.03516444e+00 3.75043366e-02-3.26381242e-05    3
 1.47662613e-08-2.43741154e-12 1.88792254e+04 2.71451071e+01                   4
C4H4              xml2ckH   4C   4   00   00G   200.000  3500.000  1000.000    1
 4.97237210e+00 1.93139904e-02-9.81196508e-06 2.43005054e-09-2.37099738e-13    2
 3.30561454e+04-6.23055157e-01-2.31343354e-01 4.11814497e-02-4.47624056e-05    3
 2.75434157e-08-7.06376813e-12 3.40632704e+04 2.42662442e+01                   4
C4H2              xml2ckH   2C   4   00   00G   200.000  3500.000  1000.000    1
 9.75839793e+00 3.78873223e-03 3.06142015e-07-6.33655024e-10 1.12930032e-13    2
 5.22698696e+04-2.79084005e+01 1.73325212e-01 4.53949030e-02-7.30123830e-05    3
 5.95251736e-08-1.87484716e-11 5.42239385e+04 1.80184355e+01                   4
A1-C6H6           xml2ckH   6C   6   00   00G   200.000  3500.000  1000.000    1
-2.06240612e-01 4.64122440e-02-2.77653536e-05 7.88910537e-09-8.60365259e-13    2
 8.09883905e+03 2.06566629e+01-5.51558393e+00 6.45453225e-02-4.41402928e-05    3
 7.47712161e-09 3.10282254e-12 9.11031457e+03 4.65332293e+01                   4
C5H4CH2           xml2ckH   6C   6   00   00G   200.000  3500.000  1000.000    1
 2.78194214e+00 4.06322016e-02-2.35029327e-05 6.51056017e-09-6.96809087e-13    2
 2.43155607e+04 7.84215958e+00-5.34007612e+00 7.17283827e-02-6.45824457e-05    3
 2.78691157e-08-3.95001455e-12 2.58936616e+04 4.70844323e+01                   4
A1X-C6H5          xml2ckH   5C   6   00   00G   200.000  3500.000  1000.000    1
 1.38016336e+00 4.04032009e-02-2.42250885e-05 6.88723321e-09-7.50960802e-13    2
 3.86973520e+04 1.55220921e+01-4.87654845e+00 6.26805782e-02-4.87402286e-05    3
 1.41122287e-08 5.18518312e-13 3.99269438e+04 4.59964173e+01                   4
A1C2H2            xml2ckH   7C   8   00   00G   200.000  3500.000  1000.000    1
 5.85935080e+00 4.72571459e-02-2.69864733e-05 7.35311775e-09-7.74900830e-13    2
 4.33198974e+04-5.22359403e+00-6.31199276e+00 9.51097942e-02-9.56352102e-05    3
 4.97780207e-08-1.02323717e-11 4.57330975e+04 5.35475222e+01                   4
A1C2H             xml2ckH   6C   8   00   00G   200.000  3500.000  1000.000    1
 5.81520488e+00 4.40872933e-02-2.52053858e-05 6.90275228e-09-7.31378908e-13    2
 3.30271906e+04-6.49320690e+00-5.21036925e+00 8.65551944e-02-8.45007483e-05    3
 4.21920706e-08-8.16766167e-12 3.52488620e+04 4.69445057e+01                   4
A1C2HY            xml2ckH   5C   8   00   00G   200.000  3500.000  1000.000    1
 7.23812069e+00 3.83812109e-02-2.18850731e-05 5.97161247e-09-6.30351467e-13    2
 6.49528135e+04-1.17512654e+01-4.42757639e+00 8.36668645e-02-8.70106362e-05    3
 4.70285661e-08-1.01816985e-11 6.73302359e+04 4.48118287e+01                   4
A2X-C10H7         xml2ckH   7C  10   00   00G   200.000  3500.000  1000.000    1
 3.22892303e+00 6.31264486e-02-3.80582381e-05 1.08454069e-08-1.18342512e-12    2
 4.78400840e+04 5.82016697e+00-8.02718034e+00 1.02924518e-01-8.34272010e-05    3
 2.72135383e-08-7.24559554e-13 5.01363344e+04 6.08902264e+01                   4
A2-C10H8          xml2ckH   8C  10   00   00G   200.000  3500.000  1000.000    1
 1.76826275e+00 6.89143506e-02-4.14322176e-05 1.17914309e-08-1.28597061e-12    2
 1.26883657e+04 1.06256608e+01-8.72434585e+00 1.05376008e-01-8.01710690e-05    3
 2.18545974e-08 1.42066606e-12 1.48059774e+04 6.19827540e+01                   4
C5H6              xml2ckH   6C   5   00   00G   200.000  3500.000  1000.000    1
 2.30537462e-01 4.09571826e-02-2.41588958e-05 6.79763480e-09-7.36374421e-13    2
 1.43779465e+04 2.02551234e+01-5.13691194e+00 6.06953453e-02-4.60552837e-05    3
 1.28457201e-08 7.41214852e-13 1.53675713e+04 4.61567559e+01                   4
C5H5              xml2ckH   5C   5   00   00G   200.000  3500.000  1000.000    1
 4.21464919e+00 2.71834728e-02-1.33173209e-05 3.08980119e-09-2.77879873e-13    2
 2.88952416e+04-3.05999781e-02-7.37844042e+00 9.72391818e-02-1.69579138e-04    3
 1.51818667e-07-5.12075479e-11 3.05514662e+04 5.12829539e+01                   4
C9H8              xml2ckH   8C   9   00   00G   200.000  3500.000  1000.000    1
 1.15459802e+00 6.54224196e-02-3.92505107e-05 1.11568841e-08-1.21592675e-12    2
 1.68166108e+04 1.53482362e+01-8.12447817e+00 9.77657067e-02-7.30435974e-05    3
 1.88295010e-08 1.84033213e-12 1.86589996e+04 6.06774763e+01                   4
C9H7              xml2ckH   7C   9   00   00G   200.000  3500.000  1000.000    1
 3.65597547e+00 5.74808463e-02-3.42870600e-05 9.70278793e-09-1.05386412e-12    2
 3.06843457e+04 2.57680216e+00-8.73685384e+00 1.03421636e-01-9.23423393e-05    3
 3.75622958e-08-4.40605270e-12 3.31641009e+04 6.28218291e+01                   4
A1CH2             xml2ckH   7C   7   00   00G   200.000  3500.000  1000.000    1
 3.30049696e+00 4.80055340e-02-2.78443022e-05 7.72371356e-09-8.27154136e-13    2
 2.17498572e+04 5.42371919e+00-6.07053038e+00 8.35201507e-02-7.41700083e-05    3
 3.13153847e-08-4.23670868e-12 2.35894712e+04 5.07932172e+01                   4
O-C6H4            xml2ckH   4C   6   00   00G   200.000  3500.000  1000.000    1
 2.98618725e+00 3.37637843e-02-2.00238391e-05 5.63853682e-09-6.10004145e-13    2
 5.12231321e+04 7.44533121e+00-3.46229657e+00 5.74016575e-02-4.92984369e-05    3
 1.90680483e-08-1.95430709e-12 5.25223614e+04 3.88488771e+01                   4
A1CH3             xml2ckH   8C   7   00   00G   200.000  3500.000  1000.000    1
-1.01117220e+00 5.85301912e-02-3.47595069e-05 9.82180993e-09-1.06680870e-12    2
 3.99363395e+03 2.83610783e+01-4.54072038e+00 6.85427145e-02-3.57113024e-05    3
-4.19397642e-09 7.41779795e-12 4.64121087e+03 4.57564849e+01                   4
A1OH              xml2ckH   6C   6O   1   00G   200.000  3500.000  1000.000    1
 1.41552427e+01 1.99350340e-02-7.18219540e-06 1.16229002e-09-6.97147483e-14    2
-1.81287441e+04-5.17984911e+01-2.90978575e-01 4.08562397e-02 2.42829425e-05    3
-7.14477617e-08 3.46002146e-11-1.34129780e+04 2.68745637e+01                   4
HOA1CH3           xml2ckH   8C   7O   1   00G   200.000  3500.000  1000.000    1
 1.59329870e+01 2.70111600e-02-9.94487220e-06 1.62966890e-09-9.85132980e-14    2
-2.35920650e+04-5.97328410e+01 4.22582670e-01 4.55516360e-02 3.20125130e-05    3
-8.11219590e-08 3.76656580e-11-1.82026210e+04 2.60329030e+01                   4
OA1CH3            xml2ckH   7C   7O   1   00G   200.000  3500.000  1000.000    1
 2.24978154e+00 5.45305091e-02-3.24871322e-05 9.18843408e-09-9.97889235e-13    2
-1.11899779e+03 1.38857859e+01-3.41544463e+00 7.30048088e-02-4.75304239e-05    3
 6.51302312e-09 3.91173994e-12 1.04360088e+01 4.17315244e+01                   4
C-C6H5O           xml2ckH   5C   6O   1   00G   200.000  3500.000  1000.000    1
 1.37221720e+01 1.74688771e-02-6.35504520e-06 1.03492308e-09-6.23410504e-14    2
 2.87274751e+02-4.88181680e+01-4.66204455e-01 4.13443975e-02 1.32412991e-05    3
-5.72872769e-08 2.89763707e-11 4.77858391e+03 2.76990274e+01                   4
END
