/*--------------------------------*- C++ -*----------------------------------*\
| =========                 |                                                 |
| \\      /  F ield         | OpenFOAM: The Open Source CFD Toolbox           |
|  \\    /   O peration     | Version:  dev                                   |
|   \\  /    A nd           | Web:      http://www.openfoam.org               |
|    \\/     M anipulation  |                                                 |
\*---------------------------------------------------------------------------*/
FoamFile {
  version         4.0;
  format          ascii;
  class           dictionary;
  location        system/porousMat1;
  object          surfacePatchDict;
}

// * * * * * * * * * * * * * * * * * * * * * * * * * * * * * * * * * * * * //

type sets;
libs ("libsampling.so");

interpolationScheme cellPatchConstrained;

setFormat         raw;
surfaceFormat     raw;

sets
(
    surfacePatch                                                                                                                                                                                                                                             
    {                                                                                                                                                                                                                                                         
      type            boundaryPoints;                                                                                                                                                                                                                       
      axis            xyz;                                                                                                                                                                                                                                  
      points        (
                       (0 0.02 0)
         		    );                                                                                                                                                                                                   
      maxDistance     1e-3;                                                                                                                                                                                                                                
      patches         ("top");                                                                                                                                                                                                                               
    }   
);

fields
(
    Ta
);

// *********************************************************************** //
