/*--------------------------------*- C++ -*----------------------------------*\
| =========                 |                                                 |
| \\      /  F ield         | OpenFOAM: The Open Source CFD Toolbox           |
|  \\    /   O peration     | Version:  dev                                   |
|   \\  /    A nd           | Web:      http://www.openfoam.org               |
|    \\/     M anipulation  |                                                 |
\*---------------------------------------------------------------------------*/
FoamFile {
  version         4.0;
  format          ascii;
  class           dictionary;
  location        system/porousMat;
  object          surfacePatchDict;
}

// * * * * * * * * * * * * * * * * * * * * * * * * * * * * * * * * * * * * //

type sets;
libs ("libsampling.so");

interpolationScheme cellPatchConstrained;

setFormat         raw;
surfaceFormat     raw;

sets
(
surfacePatch {
  type            boundaryPoints;
  axis            xyz;
  points          (( 0.005 0.0721 0.005 ));
  maxDistance     0.1;
  patches         ("top");
}
);

fields
(
    Ta
);

// *********************************************************************** //
