ELEMENTS
 C   H   N   O 
END
SPECIES
 N2                O2                CO2               CO                H2O              
 OH                H2                H                 CH2CO            
 S-CH2             CH2O              CH3               CH4               C2H2             
 C2H4              C2H6              P-C3H4            A-C3H5            C3H6             
 C3H3              A1                C5H6              C5H5              A1-              
 C4H2              A1OH              
! C(gr)
END
REACTIONS
 OH+H2 = H+H2O                           1.730e+08    1.510   3429.73
 2H+M = H2+M                             1.780e+18   -1.000      0.00
   CO2/0.00/ H2O/0.00/ N2/0.63/ H2/0.00/ CH4/2.00/ C2H6/3.00/ 
 2H+H2 = 2H2                             9.000e+16   -0.600      0.00
 2H+H2O = H2+H2O                         5.620e+19   -1.250      0.00
 H+OH+M = H2O+M                          4.400e+22   -2.000      0.00
   CO2/3.60/ CO/1.75/ H2O/6.30/ N2/0.38/ H2/2.00/ CH4/2.00/ C2H6/3.00/ 
 CO+OH = CO2+H                           1.900e+04    2.170  -1967.02
 CH2CO => S-CH2+CO                       1.140e+38   -7.300  88090.34
 S-CH2+H2O => CH2O+2H                    5.000e+34   -6.880   5521.03
 S-CH2+H2O => CH2O+H2                    6.820e+10    0.250   -934.51
 CH2O+H => H+CO+H2                       5.740e+07    1.900   2741.40
 CH2O+OH => H+CO+H2O                     3.430e+09    1.180   -446.94
 CH2O+CH3 => H+CO+CH4                    3.320e+03    2.810   5860.42
 CH3+H(+M) = CH4(+M)                     6.920e+13    0.180      0.00
   CO2/2.00/ CO/1.50/ H2O/6.00/ N2/0.70/ H2/2.00/ CH4/3.00/ C2H6/3.00/ 
   LOW  /  3.470e+38   -6.300   5074.09 /
   TROE/   0.783    74.00   2941.00   6964.00 /
 CH3+OH => CH2O+2H                       3.350e+33   -6.560   4947.42
 CH3+OH => CH2O+H2                       8.000e+09    0.000  -1754.30
 CH4+H = CH3+H2                          6.600e+08    1.620  10841.30
 CH4+OH = CH3+H2O                        1.000e+08    1.600   3119.02
 C2H2+OH => CH2CO+H                      1.350e+03    2.710    781.55
 C2H2+OH => CH3+CO                       1.280e+09    0.730   2578.87
 CH2CO+H => CH3+CO                       1.500e+09    1.380    614.24
 C2H4+H => C2H2+H+H2                     1.270e+05    2.750  11649.14
 C2H4+OH => C2H2+H+H2O                   1.310e-01    4.200   -860.42
 C2H4+CH3 => C2H2+H+CH4                  2.730e+13    0.000  21168.74
 C2H6 = 2CH3                             2.110e+68  -14.540 111883.37
 C2H6+H => C2H4+H+H2                     1.700e+05    2.700   5740.92
 C2H6+OH => C2H4+H+H2O                   1.610e+06    2.220    740.92
 C2H6+CH3 => C2H4+H+CH4                  1.500e-07    6.000   6042.07
 P-C3H4+H = C2H2+CH3                     3.460e+12    0.440   5463.67
 A-C3H5+H = C3H6                         5.830e+13    0.180   -124.28
 C3H3+H = P-C3H4                         7.940e+29   -5.060   4861.38
 C3H3+OH => C2H2+CO+2H                   7.530e+06    1.550   2105.64
 C3H3+OH => C2H4+CO                      1.280e+09    0.730   2578.87
 A-C3H5 => P-C3H4+H                      8.620e+50  -11.130  77612.33
 P-C3H4+H = C3H3+H2                      8.500e+04    2.700   5740.92
 P-C3H4+OH = C3H3+H2O                    8.050e+05    2.220    740.92
 P-C3H4+CH3 = C3H3+CH4                   4.220e+14    0.000  22256.21
 C3H6+H => A-C3H5+H2                     6.600e+05    2.540   6756.69
 C3H6+OH => A-C3H5+H2O                   2.000e+08    1.460    537.76
 C3H6+CH3 => A-C3H5+CH4                  4.520e-01    3.650   7153.44
 C2H4+CH3 = C3H6+H                       1.110e+11    0.000   7351.82
 2C3H3 = A1                              1.870e+46   -9.840  16804.49
 C5H6 = C5H5+H                           1.730e+68  -15.160 116371.89
 C5H6+H = C5H5+H2                        2.800e+13    0.000   2258.60
 C5H6+OH = C5H5+H2O                      3.080e+06    2.000      0.00
 C5H6+CH3 = C5H5+CH4                     1.800e-01    4.000      0.00
 C5H6+H = A-C3H5+C2H2                    3.300e+14    0.000  12344.65
 C5H5 => C3H3+C2H2                       2.500e+63  -13.200 115609.46
 A1- => C4H2+C2H2+H                      9.740e+29   -4.710  83675.91
 A1 = A1-+H                              1.290e+61  -12.480 148085.56
 A1+H = A1-+H2                           6.020e+08    1.800  16352.77
 A1+CH3 = A1-+CH4                        2.750e-02    4.460  13637.67
 A1+OH = A1-+H2O                         2.340e+04    2.680    733.75
 A1OH => C5H6+CO                         5.000e+15   -0.610  74118.07
 A1OH => C5H5+CO+H                       1.590e+15   -0.610  74118.07
 A1OH+H => A1+OH                         7.100e+07    1.720   6123.33
 A1-+OH => A1OH                          3.000e+13    0.000      0.00
 C4H2+OH => C3H3+CO                      3.300e+12   -0.250   2375.72
! C(gr)+O2 => CO2                         1.000e+05    0.000  28681.00
!  FORD / C(gr)  0.00 /
!  FORD / O2  0.00 /
END
