! Mecanism generated by xml2ck using the file test.xml.

ELEMENTS 
N H O C AR
END
SPECIES 
N2 H OH H2 H2O CO2 CO CH3 C2H CH2CO C2H2 P-CH2 CH4 C2H3 C2H4 C2H5 C3H3 P-C3H4 A-C3H4 N-C4H3 A-C3H5 C4H4 C4H2 A1-C6H6 C5H4CH2 A1X-C6H5 A1C2H2 A1C2H A1C2HY A2X-C10H7 A2-C10H8 C5H6 C5H5 C9H8 C9H7 A1CH2 O-C6H4 A1CH3 A1OH HOA1CH3 OA1CH3 C-C6H5O AR
END

REACTIONS
A1OH<=>C5H6+CO                            8.620e+18   -0.610   74118.100
C5H6<=>C5H5+H                             1.730e+71  -15.160  116372.000
C3H3+C2H2<=>C5H5                          2.350e+11    0.000    9995.220
A1OH<=>C-C6H5O+H                          1.010e+74  -15.920  124790.000
C-C6H5O<=>CO+C5H5                         2.900e+13    0.000   36424.500
C3H3+H<=>P-C3H4                           7.940e+29   -5.060    4861.380
C3H3+H<=>A-C3H4                           3.160e+29   -5.000    4710.800
A-C3H4<=>P-C3H4                           7.760e+42   -7.800   78446.500
A-C3H4+H<=>A-C3H5                         2.010e+49  -10.770   19622.400
C5H6+H<=>C5H5+H2                          2.800e+13    0.000    2258.600
C5H6+H<=>A-C3H5+C2H2                      6.600e+14    0.000   12344.700
HOA1CH3<=>OA1CH3+H                        1.010e+74  -15.920  124790.000
OA1CH3=>C5H4CH2+CO+H                      2.900e+13    0.000   36424.500
CH4+H<=>CH3+H2                            6.600e+08    1.620   10841.300
P-C3H4+H<=>C2H2+CH3                       3.460e+12    0.440    5463.670
P-C3H4+H<=>C3H3+H2                        8.500e+04    2.700    5740.920
C5H4CH2<=>A1-C6H6                         1.450e+48   -8.900   97002.900
2C3H3<=>C5H4CH2                           8.250e+46  -10.100   16959.800
2C3H3<=>A1-C6H6                           1.070e+45   -9.570   17014.800
A1CH3<=>A1CH2+H                           1.250e+21   -0.600   94787.300
A1CH2<=>C5H5+C2H2                         8.200e+17    0.000   80676.400
A1CH3+H<=>A1CH2+H2                        6.470e+00    3.980    3384.320
A1CH3+OH<=>HOA1CH3+H                      3.140e+01    3.370    4720.360
A1-C6H6<=>A1X-C6H5+H                      1.290e+64  -12.480  148086.000
A1-C6H6+H<=>A1X-C6H5+H2                   6.020e+08    1.800   16352.800
OH+H2<=>H+H2O                             1.730e+08    1.510    3429.730
P-CH2+H2<=>CH3+H                          7.000e+13    0.000       0.000
2CH3<=>C2H5+H                             6.840e+12    0.100   10599.900
C2H4+H<=>C2H3+H2                          1.330e+06    2.530   12239.500
C4H2+H2<=>C4H4                            4.000e+14    0.000   53900.600
A1X-C6H5+C2H2<=>A1C2H2                    3.290e+06    2.050    3162.050
A1C2H2<=>A1C2H+H                          7.180e+13    1.020   38673.500
A1CH3<=>A1X-C6H5+CH3                      2.160e+32   -3.580  110165.000
A1CH2+H<=>A1X-C6H5+CH3                    5.830e+67  -14.150   68329.400
A1-C6H6+OH<=>A1X-C6H5+H2O                 4.030e+02    3.330    1455.540
A1X-C6H5+CH4<=>A1-C6H6+CH3                3.890e-03    4.570    5258.130
A1X-C6H5(+M)<=>O-C6H4+H(+M)               4.300e+15    0.620   77301.600
 LOW /   1.000e+84  -18.870   90100.400/
TROE/ 0.902 696 358 3856 /
AR/0.7/ CH4/2/ CO/1.75/ CO2/3.6/ H2/2/ H2O/12/ 
C4H2+C2H2<=>O-C6H4                        5.000e+78  -19.310   67920.600
CO+OH<=>CO2+H                             8.000e+11    0.140    7351.820
CO+OH<=>CO2+H                             8.780e+10    0.030     -16.730
C2H+H2<=>C2H2+H                           3.310e+06    2.260     901.050
C2H2+OH<=>CH2CO+H                         7.530e+06    1.550    2105.640
CH2CO+H<=>CH3+CO                          1.500e+09    1.380     614.240
C2H2+C2H<=>N-C4H3                         7.800e+13    0.000       0.000
C4H2+H<=>N-C4H3                           1.370e+39   -7.870   15442.200
N-C4H3+C2H2<=>A1X-C6H5                    9.600e+70  -17.770   31300.200
A1CH2+C2H2<=>C9H8+H                       3.160e+04    2.480   11061.200
A1CH3+H<=>A1-C6H6+CH3                     2.310e+06    2.170    4163.480
A1CH2+C3H3<=>A2-C10H8+H2                  1.640e+44   -9.200   15153.000
HOA1CH3+H<=>OA1CH3+H2                     1.150e+14    0.000   12397.200
C9H8<=>C9H7+H                             1.730e+71  -15.160  116372.000
A1C2HY+C2H2<=>A2X-C10H7                   1.340e+04    2.500    1283.460
END
