/*--------------------------------*- C++ -*----------------------------------*\
| =========                 |                                                 |
| \\      /  F ield         | OpenFOAM: The Open Source CFD Toolbox           |
|  \\    /   O peration     | Version:  7
|   \\  /    A nd           | Web:      http://www.OpenFOAM.org               |
|    \\/     M anipulation  |                                                 |
\*---------------------------------------------------------------------------*/
FoamFile {
  version     2.0;
  format      ascii;
  class       dictionary;
  object      fvSolution;
}
// * * * * * * * * * * * * * * * * * * * * * * * * * * * * * * * * * * * * * //

solvers {
  Ta
  {
    solver          PCG;
    preconditioner  DIC;
    tolerance       1e-06;
    relTol          0;
  }

  D
  {
    solver                GAMG;
    smoother              GaussSeidel;
    nPreSweeps            0;
    nPostSweeps           2;
    nFinestSweeps         2;
    scaleCorrection       true;
    directSolveCoarsest   false;
    cacheAgglomeration    true;
    nCellsInCoarsestLevel 5;
    agglomerator          faceAreaPair;
    mergeLevels           1;
    // solver          PCG;
    // preconditioner  DIC;
    tolerance       1e-10;
    relTol          0.1;
    minIter         0;
    maxIter         1000;
  }
}

// solidMechanics
// {
//     nCorrectors     3;
//     D               1e-3;
// }

// relaxationFactors
// {
//     // D    0.9;
// }

// ************************************************************************* //
