// SetCase
FoamFile {
  version     5.0;
  format      ascii;
  class       dictionary;
  location    "constant/setCase";
  object      setCase;
}

// * * * * * * * * * * * * * * * * * * * * * * * * * * * * * * * * * * * * * //

regions {
  solid (porousMat);
}

// ************************************************************************* //
