/*--------------------------------*- C++ -*----------------------------------*\
| =========                 |                                                 |
| \\      /  F ield         | OpenFOAM: The Open Source CFD Toolbox           |
|  \\    /   O peration     | Version:  1.5                                   |
|   \\  /    A nd           | Web:      http://www.OpenFOAM.org               |
|    \\/     M anipulation  |                                                 |
\*---------------------------------------------------------------------------*/
FoamFile {
  version     2.0;
  format      ascii;
  class       dictionary;
  object      fvSolution;
}
// * * * * * * * * * * * * * * * * * * * * * * * * * * * * * * * * * * * * * //

solvers {
    Ta
    {
      solver          PCG;
      preconditioner  DIC;
      tolerance        1e-08;
      relTol           0;
    };

    Tg
    {
        solver          PCG;
        preconditioner  DIC;
        tolerance       1e-08;
        relTol          0;
    }

    p
    {
      solver          PCG;
      preconditioner  DIC;
      tolerance        1e-10;
      relTol           0;
    };

    Xsii
    {
      solver          PCG;
      preconditioner  DIC;
      tolerance        1e-10;
      relTol           1e-06;
    };



// ************************************************************************* //
