/*--------------------------------*- C++ -*----------------------------------*\
| =========                 |                                                 |
| \\      /  F ield         | OpenFOAM: The Open Source CFD Toolbox           |
|  \\    /   O peration     | Version:  4.x                                   |
|   \\  /    A nd           | Web:      www.OpenFOAM.org                      |
|    \\/     M anipulation  |                                                 |
\*---------------------------------------------------------------------------*/
FoamFile {
  version     2.0;
  format      ascii;
  class       dictionary;
  location    "system";
  object      fvSolution;
}
// * * * * * * * * * * * * * * * * * * * * * * * * * * * * * * * * * * * * * //

solvers {
  p
  {
    solver          GAMG;
    smoother        DIC;
    tolerance       1e-07;
    relTol          0;
  }

  Ta
  {
    solver          PBiCGStab;
    preconditioner  FDIC;
    tolerance       1e-06;
    relTol          0;
  }

  Tg
  {
    solver          PBiCGStab;
    preconditioner  FDIC;
    tolerance       1e-06;
    relTol          0;
  }

}

// ************************************************************************* //
