/*--------------------------------*- C++ -*----------------------------------*\
| =========                 |                                                 |
| \\      /  F ield         | OpenFOAM: The Open Source CFD Toolbox           |
|  \\    /   O peration     | Version:  1.5                                   |
|   \\  /    A nd           | Web:      http://www.OpenFOAM.org               |
|    \\/     M anipulation  |                                                 |
\*---------------------------------------------------------------------------*/
FoamFile {
  version     2.0;
  format      ascii;
  class       dictionary;
  object      fvSchemes;
}
// * * * * * * * * * * * * * * * * * * * * * * * * * * * * * * * * * * * * * //

d2dt2Schemes {
default            steadyState;
}

ddtSchemes {
default            Euler;
}

gradSchemes {
default           Gauss linear;
  grad(D)           leastSquares;
}

divSchemes {
default         Gauss  linear;
  div(meshPhi,Xsii) Gauss downwind;
}

laplacianSchemes {
default         Gauss linear corrected;
}

interpolationSchemes {
default         linear;
}

snGradSchemes {
default         corrected;
}

fluxRequired {
  // used for the ALE correction
default         no;
  Ta;
  p;
}

// ************************************************************************* //
