/*--------------------------------*- C++ -*----------------------------------*\
| =========                 |                                                 |
| \\      /  F ield         | OpenFOAM: The Open Source CFD Toolbox           |
|  \\    /   O peration     | Version:  2.3.1                                 |
|   \\  /    A nd           | Web:      www.OpenFOAM.org                      |
|    \\/     M anipulation  |                                                 |
\*---------------------------------------------------------------------------*/
FoamFile {
  version     2.0;
  format      ascii;
  class       dictionary;
  object      fvSchemes;
}
// * * * * * * * * * * * * * * * * * * * * * * * * * * * * * * * * * * * * * //

ddtSchemes {
default         Euler;
}

gradSchemes {
default         Gauss linear;
}

divSchemes {
default         none;
  div(phi,U)      bounded Gauss limitedLinearV 1;
  div(phi,R)      bounded Gauss limitedLinear 1;
  div((nuEff*dev2(T(grad(U))))) Gauss linear;
}

laplacianSchemes {
default        Gauss linear corrected;
}

interpolationSchemes {
default         linear;
}

snGradSchemes {
default         corrected;
}

// ************************************************************************* //
