/*---------------------------------------------------------------------------*\
Solid properties. Update as needed.
\*---------------------------------------------------------------------------*/

FoamFile {
  version     2.0;
  format      ascii;
  class       dictionary;
  location    "constant";
  object      solidProperties;
}

// * * * * * *  Units * * * * * [kg m s K mol A cd] * * * * * * * * * * * * * //
// e.g. W: kg m^2 s^{-3}        [1 2 -3 0 0 0 0]
// * * * * * * * * * * * * * * * * * * * * * * * * * * * * * * * * * * * * * //

nSolidPhases    1;                                              // number of phases (index starts at 1)
rhoI[1]         rhoI[1]         [1 -3 0 0 0 0 0]        1600;   // intrinsic density of the fibers
epsI[1]         epsI[1]         [0 0 0 0 0 0 0]         0.1;    // volume fraction of the fibrous preform

K_c             K_c             [0 2 0 0 0 0 0]         (6e-11 0 0 0 6e-11 0 0 0 6e-11);       // char permeability (second order tensor)
K_v             K_v             [0 2 0 0 0 0 0]         (6e-11 0 0 0 6e-11 0 0 0 6e-11); // virgin material permeability (second order tensor)
Beta_c         Beta_c           [0 -1 0 0 0 0 0]        (6.45e4 0 0 0 6.45e4 0 0 0 6.45e4);       // char Forchheimer coefficient
Beta_v         Beta_v           [0 -1 0 0 0 0 0]        (6.45e4 0 0 0 6.45e4 0 0 0 6.45e4); // virgin Forchheimer coefficient
eps_g_v         eps_g_v         [0 0 0 0 0 0 0]         0.9;    // virgin material porosity
eps_g_c         eps_g_c         [0 0 0 0 0 0 0]         0.9;   // char porosity


// Heat exchange coefficient
Hv0             Hv0             [1 -1 -3 -1 0 0 0]              1000;    // heat transfer coefficient

// 1- Express the main directions (ijk) of the diagonal conductivity matrix in the basis of the mesh (xyz)
//              The transposed conductivity passage matrix (tP) expresses (i,j,k) coordinates in the basis (x,y,z)
//              where (i,j,k) is a direct orthonormal basis of the diagonal conductivity matrix
//              and (x,y,z) is the direct orthonormal basis of the mesh (in case of doubt, mesh directions can be seen in paraview)
//                                                      (i j k)                 ex. rotation a (in radians) around axis z
tP              tP              [0 0 0 0 0 0 0]         (1 0 0   // x           (cosa -sina 0
    0 1 0   // y            sina  cosa 0
    0 0 1); // z            0       0  1)
// 2 - Linear factors
kiCoef          kiCoef          [0 0 0 0 0 0 0]         1;       // to multiply column ki of the input files 'char' and 'virgin' by a linear factor: ki' = kiCoef*ki
kjCoef          kjCoef          [0 0 0 0 0 0 0]         1;       // idem for kj
kkCoef          kkCoef          [0 0 0 0 0 0 0]         1;       // idem for kk

/***            Solid mechanics model         ***/
nu_v    nu_v    [0 0 0 0 0 0 0]      0.3;    // virgin material Poisson's ratio
nu_c    nu_c    [0 0 0 0 0 0 0]      0.3;    // char Poisson's ration
E_v     E_v     [1 -1 -2 0 0 0 0]    70e9;   // virgin material Young modulus
E_c     E_c     [1 -1 -2 0 0 0 0]    20e9;   // char Young modulus
alpha_v alpha_v [0 0 0 -1 0 0 0]     8e-5;   // virgin thermal expansion coefficient
alpha_c alpha_c [0 0 0 -1 0 0 0]     8e-5;   // char thermal expansion coefficient
xi      xi      [0 0 0 0 0 0 0]      0.5;     // Jomaa Function (pyrolysis shrinkage)

// ************************************************************************* //
