/*--------------------------------*- C++ -*----------------------------------*\
| =========                 |                                                 |
| \\      /  F ield         | OpenFOAM: The Open Source CFD Toolbox           |
|  \\    /   O peration     | Version:  1.5                                   |
|   \\  /    A nd           | Web:      http://www.OpenFOAM.org               |
|    \\/     M anipulation  |                                                 |
\*---------------------------------------------------------------------------*/
FoamFile {
  version     2.0;
  format      ascii;
  class       dictionary;
  object      fvSolution;
}
// * * * * * * * * * * * * * * * * * * * * * * * * * * * * * * * * * * * * * //

solvers {
  cellMotionU
  {
    solver          PCG;
    preconditioner  DIC;
    tolerance       1e-06;
    relTol          0;
  };

  D
  {
    tolerance       1e-06;
    relTol          0;
    minIter         0;
    maxIter         1000;

    //solver          PCG;
    //preconditioner  DIC;

    solver                GAMG;
    smoother              GaussSeidel;
    nPreSweeps            0;
    nPostSweeps           2;
    nFinestSweeps         2;
    scaleCorrection       true;
    directSolveCoarsest   false;
    cacheAgglomeration    true;
    nCellsInCoarsestLevel 20;
    agglomerator          faceAreaPair;
    mergeLevels           1;
  }
}

solidMechanics {
  nCorrectors     50;
  D               1e-7;
}

relaxationFactors {
  // D      0.5;
}

// ************************************************************************* //
