/*--------------------------------*- C++ -*----------------------------------*\
| =========                 |                                                 |
| \\      /  F ield         | OpenFOAM: The Open Source CFD Toolbox           |
|  \\    /   O peration     | Version:  5.0                                   |
|   \\  /    A nd           | Web:      www.OpenFOAM.org                      |
|    \\/     M anipulation  |                                                 |
\*---------------------------------------------------------------------------*/
FoamFile {
  version         7.0;
  format          ascii;
  class           dictionary;
  object          dynamicMeshDict;
}

/* * *          User-defined mesh motion parameters      * * */
// For code initialization - Do NOT modify
dynamicFvMesh   dynamicMotionSolverFvMesh;
motionSolverLibs ("libfvMotionSolvers.so");
motionSolver    velocityLaplacian;
diffusivity     uniform;

