/*--------------------------------*- C++ -*----------------------------------*\
| =========                 |                                                 |
| \\      /  F ield         | OpenFOAM: The Open Source CFD Toolbox           |
|  \\    /   O peration     | Version:  4.x                                   |
|   \\  /    A nd           | Web:      www.OpenFOAM.org                      |
|    \\/     M anipulation  |                                                 |
\*---------------------------------------------------------------------------*/
FoamFile {
  version     2.0;
  format      ascii;
  class       dictionary;
  location    "system";
  object      fvSolution;
}
// * * * * * * * * * * * * * * * * * * * * * * * * * * * * * * * * * * * * * //

solvers {
  p
  {
    solver          PCG;
    preconditioner  DIC;
    tolerance       1e-8;
    relTol          0;
  }

  T_s
  {
    solver          PCG;
    preconditioner  DIC;
    tolerance       1e-8;
    relTol          0;
  }

  T_g
  {
    solver          PBiCG;
    preconditioner  DILU;
    tolerance       1e-8;
    relTol          0;
  }

}

// ************************************************************************* //
