/*--------------------------------*- C++ -*----------------------------------*\
| =========                 |                                                 |
| \\      /  F ield         | OpenFOAM: The Open Source CFD Toolbox           |
|  \\    /   O peration     | Version:  5.0                                   |
|   \\  /    A nd           | Web:      www.OpenFOAM.org                      |
|    \\/     M anipulation  |                                                 |
\*---------------------------------------------------------------------------*/
FoamFile {
  version     4.0;
  format      ascii;
  class       dictionary;
  location    "constant/porousMat";
  object      porousMatProperties;
}

// * * * * * * * * * * * * * * * * * * * * * * * * * * * * * * * * * * * * * //

/****************************** GENERAL ************************************/
//debug yes;
movingMesh      no;
/****************************** end GENERAL ********************************/

/****************************** IO *****************************************/
IO {
  writeFields (U vG); // write fields in the time folders
  probingFunctions
  (
      //plotDict
      //surfacePatchDict
  ); // name of sampling/probing dictionaries in "system/porousMat"
}
/****************************** END IO ************************************/

/****************************** MASS, ENERGY, PYROLYSIS *******************/
MaterialProperties {
  MaterialPropertiesType Porous; // porous material properties
  MaterialPropertiesDirectory "$PATO_DIR/tutorials/basic/compressibleDarcy2T/1D/PATOx/constant/dummyPorousMaterial"; // material properties file
  //MaterialPropertiesDirectory "$PATO_DIR/data/Materials/Composites/CarbonFiberPreform"; // material properties file
}

Pyrolysis {
  PyrolysisType no; // PATO pyrolysis
}

Mass {
  MassType DarcyLaw2T; // Solve the semi implicit pressure equation
}

Energy {
   //EnergyType  no;
   EnergyType Pyrolysis2T;  // Solve the temperature equation
}

SolidMechanics {
  SolidMechanicsType  no; //SolidDisplacement
}
/****************************** END MASS, ENERGY, PYROLYSIS ****************/

/****************************** GAS PROPERTIES  ************************************/
GasProperties {
  GasPropertiesType Tabulated2T; // tabulated gas properties
  GasPropertiesFile "$PATO_DIR/tutorials/basic/compressibleDarcy2T/1D/PATOx/constant/dummyPorousMaterial/gasProperties_with_k"; // tabulated gas properties file
  //GasPropertiesFile "$PATO_DIR/data/Materials/Composites/CarbonFiberPreform/gasProperties_with_k"; // tabulated gas properties file
}
/****************************** END GAS PROPERTIES **************************/

/****************************** TIME CONTROL  **********************************/
TimeControl {
  TimeControlType GradP; // change the integration time step in function of the gradient of the pressure and the species mass fractions
  chemTransEulerStepLimiter no;
}
/****************************** END TIME CONTROL  ******************************/
