/*--------------------------------*- C++ -*----------------------------------*\
  =========                 |
  \\      /  F ield         | OpenFOAM: The Open Source CFD Toolbox
   \\    /   O peration     | Website:  https://openfoam.org
    \\  /    A nd           | Version:  7
     \\/     M anipulation  |
\*---------------------------------------------------------------------------*/
FoamFile {
  version     2.0;
  format      ascii;
  class       volScalarField;
  location    "0/cylinder";
  object      rho_s;
}
// * * * * * * * * * * * * * * * * * * * * * * * * * * * * * * * * * * * * * //

dimensions      [1 -3 0 0 0 0 0];

internalField   uniform 3103;

boundaryField {
  top
  {
    type            calculated;
    value           $internalField;
  }
  bottom
  {
    type            calculated;
    value           $internalField;
  }
  porousMat_to_tank
  {
    type zeroGradient;
  }

#includeEtc "caseDicts/setConstraintTypes"
}


// ************************************************************************* //
