/*--------------------------------*- C++ -*----------------------------------*\
  =========                 |
  \\      /  F ield         | OpenFOAM: The Open Source CFD Toolbox
   \\    /   O peration     | Website:  https://openfoam.org
    \\  /    A nd           | Version:  7
     \\/     M anipulation  |
\*---------------------------------------------------------------------------*/
FoamFile {
  version     2.0;
  format      ascii;
  class       polyBoundaryMesh;
  location    "constant/polyMesh";
  object      boundary;
}
// * * * * * * * * * * * * * * * * * * * * * * * * * * * * * * * * * * * * * //

6
(
top {
  type            patch;
  nFaces          45;
  startFace       2625;
}
bottom {
  type            patch;
  nFaces          45;
  startFace       2670;
}
wall {
  type            wall;
  inGroups        List<word> 1(wall);
  nFaces          30;
  startFace       2715;
}
axis {
  type            empty;
  inGroups        List<word> 1(empty);
  nFaces          0;
  startFace       2745;
}
wedge1 {
  type            wedge;
  inGroups        List<word> 1(wedge);
  nFaces          1350;
  startFace       2745;
}
wedge2 {
  type            wedge;
  inGroups        List<word> 1(wedge);
  nFaces          1350;
  startFace       4095;
}
)

// ************************************************************************* //
