/*---------------------------------------------------------------------------*\
Solid properties. Update as needed.
\*---------------------------------------------------------------------------*/

FoamFile {
  version     2.0;
  format      ascii;
  class       dictionary;
  location    "constant";
  object      solidProperties;
}

// * * * * * *  Units * * * * * [kg m s K mol A cd] * * * * * * * * * * * * * //
// e.g. W: kg m^2 s^{-3}        [1 2 -3 0 0 0 0]
// * * * * * * * * * * * * * * * * * * * * * * * * * * * * * * * * * * * * * //

eps            eps       [0  0  0  0 0 0 0] 0.8;

k_s            k_s       [1  1 -3 -1 0 0 0] (1 0 0
    0 1 0
    0 0 1);

k_g            k_g       [1  1 -3 -1 0 0 0] (0 0 0
    0 0 0
    0 0 0);

u_g	       u_g     [0  1  -1  0 0 0 0] (1e-02 0 0);

rho_s          rho_s   [1 -3  0  0 0 0 0] 300;

rho_g          rho_g   [1 -3  0  0 0 0 0] 8.248e-01;

cp_s           cp_s    [0  2 -2 -1 0 0 0] 1000;

cp_g           cp_g    [0  2 -2 -1 0 0 0] 1676;

//h_g            h_g     [0  2 -2  0 0 0 0] -7.0488e+06;

hgs            hgs       [1 -1 -3 -1 0 0 0] 0;

hsg            hsg       [1 -1 -3 -1 0 0 0] 6000;

// ************************************************************************* //
