/*--------------------------------*- C++ -*----------------------------------*\
  =========                 |
  \\      /  F ield         | OpenFOAM: The Open Source CFD Toolbox
   \\    /   O peration     | Website:  https://openfoam.org
    \\  /    A nd           | Version:  7
     \\/     M anipulation  |
\*---------------------------------------------------------------------------*/
FoamFile {
  version     2.0;
  format      ascii;
  class       dictionary;
  object      fvSolution;
}
// * * * * * * * * * * * * * * * * * * * * * * * * * * * * * * * * * * * * * //

solvers {
  Ta
  {
    solver                GAMG;
    tolerance             1e-20;
    relTol                0;
    minIter               0;
    maxIter               1000;
    smoother              GaussSeidel;
    cacheAgglomeration    true;
    nCellsInCoarsestLevel 20;
    agglomerator          faceAreaPair;
    mergeLevels           1;
  }

  D
  {
    tolerance       1e-10;
    relTol          0.1;
    minIter         0;
    maxIter         1000;

    //solver          PCG;
    //preconditioner  DIC;

    solver                GAMG;
    smoother              GaussSeidel;
    nPreSweeps            0;
    nPostSweeps           2;
    nFinestSweeps         2;
    scaleCorrection       true;
    directSolveCoarsest   false;
    cacheAgglomeration    true;
    nCellsInCoarsestLevel 20;
    agglomerator          faceAreaPair;
    mergeLevels           1;
  }
}

solidMechanics {
  nCorrectors     10000;
  D               1e-6;
}

relaxationFactors {
  //    D      1;
}
// ************************************************************************* //
