/*--------------------------------*- C++ -*----------------------------------*\
| =========                 |                                                 |
| \\      /  F ield         | OpenFOAM: The Open Source CFD Toolbox           |
|  \\    /   O peration     | Version:  4.x                                   |
|   \\  /    A nd           | Web:      www.OpenFOAM.org                      |
|    \\/     M anipulation  |                                                 |
\*---------------------------------------------------------------------------*/
FoamFile {
  version     4.0;
  format      ascii;
  class       dictionary;
  location    "constant/porousMat";
  object      porousMatProperties;
}

// * * * * * * * * * * * * * * * * * * * * * * * * * * * * * * * * * * * * * //

movingMesh yes;

Mass {
  createFields ((p volScalarField));
}

SolidMechanics {
  SolidMechanicsType elasticOrthoSolidFoam;
  update_every_n_iter 1;
}
