/*---------------------------------------------------------------------------*\
Constant property directory. Update as needed.
\*---------------------------------------------------------------------------*/

FoamFile {
  version     2.0;
  format      ascii;
  class       dictionary;
  location    "constant/tank/materialProperties";
  object      constantProperties;
}
// * * * * * *  Units * * * * * [kg m s K mol A cd] * * * * * * * * * * * * * //
// e.g. W: kg m^2 s^{-3}        [1 2 -3 0 0 0 0]

/***            MATERIAL PROPERTIES                                         ***/
/* These data come from various sources for for 16Mo3 steel                   */

rho_s_const     7800;
k_const         40;
cp_const        433;
nu_const        0.3;
E_const         155e9;
alpha_const     1.41e-5;
xi_const        0.5;
