/*--------------------------------*- C++ -*----------------------------------*\
| =========                 |                                                 |
| \\      /  F ield         | OpenFOAM: The Open Source CFD Toolbox           |
|  \\    /   O peration     | Version:  4.x                                   |
|   \\  /    A nd           | Web:      www.OpenFOAM.org                      |
|    \\/     M anipulation  |                                                 |
\*---------------------------------------------------------------------------*/
FoamFile
{
    version     4.0;
    format      ascii;
    class       dictionary;
    location    "constant/porousMat";
    object      constantProperties;
}

// * * * * * * * * * * * * * * * * * * * * * * * * * * * * * * * * * * * * * //

/****************************** GENERAL ************************************/
//debug yes;
/****************************** END GENERAL ********************************/

/****************************** IO *****************************************/
Output
{
	writeFields ();  // write fields in the time folders
	probingFunctions   // name of sampling/probing dictionaries in "system/porousMat"
	(
	);
}
/****************************** END IO *************************************/

/****************************** ENERGY *************************************/
Energy
{
    EnergyType boundaryTable; // Update the cell center value using the boundary value
}
/****************************** END ENERGY *********************************/

/****************************** GAS PROPERTIES *****************************/
GasProperties
{
    GasPropertiesType Equilibrium; // Update the equilibrium gas properties
}
/****************************** END GAS PROPERTIES *************************/

/****************************** MATERIAL PROPERTIES ************************/
MaterialProperties
{
    MaterialPropertiesType porous; // porous material properties
    MaterialPropertiesDirectory "$PATO_DIR/data/Materials/Composites/TACOT"; // material properties directory
}
/****************************** END MATERIAL PROPERTIES ********************/

/****************************** CHEMISTRY **********************************/
Chemistry
{
	ChemistryType speciesConservation; // finte-rate using Mutation++
	mixture Carbon_oxidation_species; // Mutation++ mixture in "$PATO_DIR/data/ThermoTransportChemistry/mutation++/mixtures"
}
/****************************** END CHEMISTRY ******************************/
